# CIF file generated by openbabel 2.4.1, see http://openbabel.sf.net
data_I
_chemical_name_common '?'
_cell_length_a 24.8
_cell_length_b 24.8
_cell_length_c 24.8
_cell_angle_alpha 90
_cell_angle_beta 90
_cell_angle_gamma 90
_space_group_name_H-M_alt 'P 1'
_space_group_name_Hall 'P 1'
loop_
    _symmetry_equiv_pos_as_xyz
    x,y,z
loop_
    _atom_site_label
    _atom_site_type_symbol
    _atom_site_fract_x
    _atom_site_fract_y
    _atom_site_fract_z
    _atom_site_occupancy
    N1      N    0.79496   0.21354   0.02781   1.000
    C1      C    0.86020   0.19634   0.12180   1.000
    C2      C    0.81560   0.16550   0.10828   1.000
    C3      C    0.78274   0.17850   0.06110   1.000
    C4      C    0.76001   0.22151   0.98142   1.000
    C5      C    0.79260   0.21060   0.93060   1.000
    C6      C    0.75870   0.22160   0.88060   1.000
    H1      H    0.86900   0.22600   0.10060   1.000
    H3      H    0.75090   0.15940   0.05590   1.000
    H4      H    0.72940   0.19660   0.98330   1.000
    H5A     H    0.80450   0.17330   0.93040   1.000
    H5B     H    0.82430   0.23350   0.93020   1.000
    H6A     H    0.77960   0.21410   0.84840   1.000
    H6B     H    0.72730   0.19820   0.88040   1.000
    N1      N    0.20504   0.78646   0.02781   1.000
    N1      N    0.20504   0.21354   0.97219   1.000
    N1      N    0.79496   0.78646   0.97219   1.000
    N1      N    0.02781   0.79496   0.21354   1.000
    N1      N    0.02781   0.20504   0.78646   1.000
    N1      N    0.97219   0.20504   0.21354   1.000
    N1      N    0.97219   0.79496   0.78646   1.000
    N1      N    0.21354   0.02781   0.79496   1.000
    N1      N    0.78646   0.02781   0.20504   1.000
    N1      N    0.21354   0.97219   0.20504   1.000
    N1      N    0.78646   0.97219   0.79496   1.000
    N1      N    0.71354   0.29496   0.52781   1.000
    N1      N    0.28646   0.70504   0.52781   1.000
    N1      N    0.71354   0.70504   0.47219   1.000
    N1      N    0.28646   0.29496   0.47219   1.000
    N1      N    0.29496   0.52781   0.71354   1.000
    N1      N    0.70504   0.52781   0.28646   1.000
    N1      N    0.70504   0.47219   0.71354   1.000
    N1      N    0.29496   0.47219   0.28646   1.000
    N1      N    0.52781   0.71354   0.29496   1.000
    N1      N    0.52781   0.28646   0.70504   1.000
    N1      N    0.47219   0.71354   0.70504   1.000
    N1      N    0.47219   0.28646   0.29496   1.000
    N1      N    0.79496   0.71354   0.52781   1.000
    N1      N    0.20504   0.28646   0.52781   1.000
    N1      N    0.20504   0.71354   0.47219   1.000
    N1      N    0.79496   0.28646   0.47219   1.000
    N1      N    0.02781   0.29496   0.71354   1.000
    N1      N    0.02781   0.70504   0.28646   1.000
    N1      N    0.97219   0.70504   0.71354   1.000
    N1      N    0.97219   0.29496   0.28646   1.000
    N1      N    0.21354   0.52781   0.29496   1.000
    N1      N    0.78646   0.52781   0.70504   1.000
    N1      N    0.21354   0.47219   0.70504   1.000
    N1      N    0.78646   0.47219   0.29496   1.000
    N1      N    0.71354   0.79496   0.02781   1.000
    N1      N    0.28646   0.20504   0.02781   1.000
    N1      N    0.71354   0.20504   0.97219   1.000
    N1      N    0.28646   0.79496   0.97219   1.000
    N1      N    0.29496   0.02781   0.21354   1.000
    N1      N    0.70504   0.02781   0.78646   1.000
    N1      N    0.70504   0.97219   0.21354   1.000
    N1      N    0.29496   0.97219   0.78646   1.000
    N1      N    0.52781   0.21354   0.79496   1.000
    N1      N    0.52781   0.78646   0.20504   1.000
    N1      N    0.47219   0.21354   0.20504   1.000
    N1      N    0.47219   0.78646   0.79496   1.000
    N1      N    0.29496   0.21354   0.52781   1.000
    N1      N    0.70504   0.78646   0.52781   1.000
    N1      N    0.70504   0.21354   0.47219   1.000
    N1      N    0.29496   0.78646   0.47219   1.000
    N1      N    0.52781   0.79496   0.71354   1.000
    N1      N    0.52781   0.20504   0.28646   1.000
    N1      N    0.47219   0.20504   0.71354   1.000
    N1      N    0.47219   0.79496   0.28646   1.000
    N1      N    0.71354   0.02781   0.29496   1.000
    N1      N    0.28646   0.02781   0.70504   1.000
    N1      N    0.71354   0.97219   0.70504   1.000
    N1      N    0.28646   0.97219   0.29496   1.000
    N1      N    0.21354   0.29496   0.02781   1.000
    N1      N    0.78646   0.70504   0.02781   1.000
    N1      N    0.21354   0.70504   0.97219   1.000
    N1      N    0.78646   0.29496   0.97219   1.000
    N1      N    0.79496   0.52781   0.21354   1.000
    N1      N    0.20504   0.52781   0.78646   1.000
    N1      N    0.20504   0.47219   0.21354   1.000
    N1      N    0.79496   0.47219   0.78646   1.000
    N1      N    0.02781   0.71354   0.79496   1.000
    N1      N    0.02781   0.28646   0.20504   1.000
    N1      N    0.97219   0.71354   0.20504   1.000
    N1      N    0.97219   0.28646   0.79496   1.000
    N1      N    0.29496   0.71354   0.02781   1.000
    N1      N    0.70504   0.28646   0.02781   1.000
    N1      N    0.70504   0.71354   0.97219   1.000
    N1      N    0.29496   0.28646   0.97219   1.000
    N1      N    0.52781   0.29496   0.21354   1.000
    N1      N    0.52781   0.70504   0.78646   1.000
    N1      N    0.47219   0.70504   0.21354   1.000
    N1      N    0.47219   0.29496   0.78646   1.000
    N1      N    0.71354   0.52781   0.79496   1.000
    N1      N    0.28646   0.52781   0.20504   1.000
    N1      N    0.71354   0.47219   0.20504   1.000
    N1      N    0.28646   0.47219   0.79496   1.000
    N1      N    0.21354   0.79496   0.52781   1.000
    N1      N    0.78646   0.20504   0.52781   1.000
    N1      N    0.21354   0.20504   0.47219   1.000
    N1      N    0.78646   0.79496   0.47219   1.000
    N1      N    0.79496   0.02781   0.71354   1.000
    N1      N    0.20504   0.02781   0.28646   1.000
    N1      N    0.20504   0.97219   0.71354   1.000
    N1      N    0.79496   0.97219   0.28646   1.000
    N1      N    0.02781   0.21354   0.29496   1.000
    N1      N    0.02781   0.78646   0.70504   1.000
    N1      N    0.97219   0.21354   0.70504   1.000
    N1      N    0.97219   0.78646   0.29496   1.000
    C1      C    0.13980   0.80366   0.12180   1.000
    C1      C    0.13980   0.19634   0.87820   1.000
    C1      C    0.86020   0.80366   0.87820   1.000
    C1      C    0.12180   0.86020   0.19634   1.000
    C1      C    0.12180   0.13980   0.80366   1.000
    C1      C    0.87820   0.13980   0.19634   1.000
    C1      C    0.87820   0.86020   0.80366   1.000
    C1      C    0.19634   0.12180   0.86020   1.000
    C1      C    0.80366   0.12180   0.13980   1.000
    C1      C    0.19634   0.87820   0.13980   1.000
    C1      C    0.80366   0.87820   0.86020   1.000
    C1      C    0.69634   0.36020   0.62180   1.000
    C1      C    0.30366   0.63980   0.62180   1.000
    C1      C    0.69634   0.63980   0.37820   1.000
    C1      C    0.30366   0.36020   0.37820   1.000
    C1      C    0.36020   0.62180   0.69634   1.000
    C1      C    0.63980   0.62180   0.30366   1.000
    C1      C    0.63980   0.37820   0.69634   1.000
    C1      C    0.36020   0.37820   0.30366   1.000
    C1      C    0.62180   0.69634   0.36020   1.000
    C1      C    0.62180   0.30366   0.63980   1.000
    C1      C    0.37820   0.69634   0.63980   1.000
    C1      C    0.37820   0.30366   0.36020   1.000
    C1      C    0.86020   0.69634   0.62180   1.000
    C1      C    0.13980   0.30366   0.62180   1.000
    C1      C    0.13980   0.69634   0.37820   1.000
    C1      C    0.86020   0.30366   0.37820   1.000
    C1      C    0.12180   0.36020   0.69634   1.000
    C1      C    0.12180   0.63980   0.30366   1.000
    C1      C    0.87820   0.63980   0.69634   1.000
    C1      C    0.87820   0.36020   0.30366   1.000
    C1      C    0.19634   0.62180   0.36020   1.000
    C1      C    0.80366   0.62180   0.63980   1.000
    C1      C    0.19634   0.37820   0.63980   1.000
    C1      C    0.80366   0.37820   0.36020   1.000
    C1      C    0.69634   0.86020   0.12180   1.000
    C1      C    0.30366   0.13980   0.12180   1.000
    C1      C    0.69634   0.13980   0.87820   1.000
    C1      C    0.30366   0.86020   0.87820   1.000
    C1      C    0.36020   0.12180   0.19634   1.000
    C1      C    0.63980   0.12180   0.80366   1.000
    C1      C    0.63980   0.87820   0.19634   1.000
    C1      C    0.36020   0.87820   0.80366   1.000
    C1      C    0.62180   0.19634   0.86020   1.000
    C1      C    0.62180   0.80366   0.13980   1.000
    C1      C    0.37820   0.19634   0.13980   1.000
    C1      C    0.37820   0.80366   0.86020   1.000
    C1      C    0.36020   0.19634   0.62180   1.000
    C1      C    0.63980   0.80366   0.62180   1.000
    C1      C    0.63980   0.19634   0.37820   1.000
    C1      C    0.36020   0.80366   0.37820   1.000
    C1      C    0.62180   0.86020   0.69634   1.000
    C1      C    0.62180   0.13980   0.30366   1.000
    C1      C    0.37820   0.13980   0.69634   1.000
    C1      C    0.37820   0.86020   0.30366   1.000
    C1      C    0.69634   0.12180   0.36020   1.000
    C1      C    0.30366   0.12180   0.63980   1.000
    C1      C    0.69634   0.87820   0.63980   1.000
    C1      C    0.30366   0.87820   0.36020   1.000
    C1      C    0.19634   0.36020   0.12180   1.000
    C1      C    0.80366   0.63980   0.12180   1.000
    C1      C    0.19634   0.63980   0.87820   1.000
    C1      C    0.80366   0.36020   0.87820   1.000
    C1      C    0.86020   0.62180   0.19634   1.000
    C1      C    0.13980   0.62180   0.80366   1.000
    C1      C    0.13980   0.37820   0.19634   1.000
    C1      C    0.86020   0.37820   0.80366   1.000
    C1      C    0.12180   0.69634   0.86020   1.000
    C1      C    0.12180   0.30366   0.13980   1.000
    C1      C    0.87820   0.69634   0.13980   1.000
    C1      C    0.87820   0.30366   0.86020   1.000
    C1      C    0.36020   0.69634   0.12180   1.000
    C1      C    0.63980   0.30366   0.12180   1.000
    C1      C    0.63980   0.69634   0.87820   1.000
    C1      C    0.36020   0.30366   0.87820   1.000
    C1      C    0.62180   0.36020   0.19634   1.000
    C1      C    0.62180   0.63980   0.80366   1.000
    C1      C    0.37820   0.63980   0.19634   1.000
    C1      C    0.37820   0.36020   0.80366   1.000
    C1      C    0.69634   0.62180   0.86020   1.000
    C1      C    0.30366   0.62180   0.13980   1.000
    C1      C    0.69634   0.37820   0.13980   1.000
    C1      C    0.30366   0.37820   0.86020   1.000
    C1      C    0.19634   0.86020   0.62180   1.000
    C1      C    0.80366   0.13980   0.62180   1.000
    C1      C    0.19634   0.13980   0.37820   1.000
    C1      C    0.80366   0.86020   0.37820   1.000
    C1      C    0.86020   0.12180   0.69634   1.000
    C1      C    0.13980   0.12180   0.30366   1.000
    C1      C    0.13980   0.87820   0.69634   1.000
    C1      C    0.86020   0.87820   0.30366   1.000
    C1      C    0.12180   0.19634   0.36020   1.000
    C1      C    0.12180   0.80366   0.63980   1.000
    C1      C    0.87820   0.19634   0.63980   1.000
    C1      C    0.87820   0.80366   0.36020   1.000
    C2      C    0.18440   0.83450   0.10828   1.000
    C2      C    0.18440   0.16550   0.89172   1.000
    C2      C    0.81560   0.83450   0.89172   1.000
    C2      C    0.10828   0.81560   0.16550   1.000
    C2      C    0.10828   0.18440   0.83450   1.000
    C2      C    0.89172   0.18440   0.16550   1.000
    C2      C    0.89172   0.81560   0.83450   1.000
    C2      C    0.16550   0.10828   0.81560   1.000
    C2      C    0.83450   0.10828   0.18440   1.000
    C2      C    0.16550   0.89172   0.18440   1.000
    C2      C    0.83450   0.89172   0.81560   1.000
    C2      C    0.66550   0.31560   0.60828   1.000
    C2      C    0.33450   0.68440   0.60828   1.000
    C2      C    0.66550   0.68440   0.39172   1.000
    C2      C    0.33450   0.31560   0.39172   1.000
    C2      C    0.31560   0.60828   0.66550   1.000
    C2      C    0.68440   0.60828   0.33450   1.000
    C2      C    0.68440   0.39172   0.66550   1.000
    C2      C    0.31560   0.39172   0.33450   1.000
    C2      C    0.60828   0.66550   0.31560   1.000
    C2      C    0.60828   0.33450   0.68440   1.000
    C2      C    0.39172   0.66550   0.68440   1.000
    C2      C    0.39172   0.33450   0.31560   1.000
    C2      C    0.81560   0.66550   0.60828   1.000
    C2      C    0.18440   0.33450   0.60828   1.000
    C2      C    0.18440   0.66550   0.39172   1.000
    C2      C    0.81560   0.33450   0.39172   1.000
    C2      C    0.10828   0.31560   0.66550   1.000
    C2      C    0.10828   0.68440   0.33450   1.000
    C2      C    0.89172   0.68440   0.66550   1.000
    C2      C    0.89172   0.31560   0.33450   1.000
    C2      C    0.16550   0.60828   0.31560   1.000
    C2      C    0.83450   0.60828   0.68440   1.000
    C2      C    0.16550   0.39172   0.68440   1.000
    C2      C    0.83450   0.39172   0.31560   1.000
    C2      C    0.66550   0.81560   0.10828   1.000
    C2      C    0.33450   0.18440   0.10828   1.000
    C2      C    0.66550   0.18440   0.89172   1.000
    C2      C    0.33450   0.81560   0.89172   1.000
    C2      C    0.31560   0.10828   0.16550   1.000
    C2      C    0.68440   0.10828   0.83450   1.000
    C2      C    0.68440   0.89172   0.16550   1.000
    C2      C    0.31560   0.89172   0.83450   1.000
    C2      C    0.60828   0.16550   0.81560   1.000
    C2      C    0.60828   0.83450   0.18440   1.000
    C2      C    0.39172   0.16550   0.18440   1.000
    C2      C    0.39172   0.83450   0.81560   1.000
    C2      C    0.31560   0.16550   0.60828   1.000
    C2      C    0.68440   0.83450   0.60828   1.000
    C2      C    0.68440   0.16550   0.39172   1.000
    C2      C    0.31560   0.83450   0.39172   1.000
    C2      C    0.60828   0.81560   0.66550   1.000
    C2      C    0.60828   0.18440   0.33450   1.000
    C2      C    0.39172   0.18440   0.66550   1.000
    C2      C    0.39172   0.81560   0.33450   1.000
    C2      C    0.66550   0.10828   0.31560   1.000
    C2      C    0.33450   0.10828   0.68440   1.000
    C2      C    0.66550   0.89172   0.68440   1.000
    C2      C    0.33450   0.89172   0.31560   1.000
    C2      C    0.16550   0.31560   0.10828   1.000
    C2      C    0.83450   0.68440   0.10828   1.000
    C2      C    0.16550   0.68440   0.89172   1.000
    C2      C    0.83450   0.31560   0.89172   1.000
    C2      C    0.81560   0.60828   0.16550   1.000
    C2      C    0.18440   0.60828   0.83450   1.000
    C2      C    0.18440   0.39172   0.16550   1.000
    C2      C    0.81560   0.39172   0.83450   1.000
    C2      C    0.10828   0.66550   0.81560   1.000
    C2      C    0.10828   0.33450   0.18440   1.000
    C2      C    0.89172   0.66550   0.18440   1.000
    C2      C    0.89172   0.33450   0.81560   1.000
    C2      C    0.31560   0.66550   0.10828   1.000
    C2      C    0.68440   0.33450   0.10828   1.000
    C2      C    0.68440   0.66550   0.89172   1.000
    C2      C    0.31560   0.33450   0.89172   1.000
    C2      C    0.60828   0.31560   0.16550   1.000
    C2      C    0.60828   0.68440   0.83450   1.000
    C2      C    0.39172   0.68440   0.16550   1.000
    C2      C    0.39172   0.31560   0.83450   1.000
    C2      C    0.66550   0.60828   0.81560   1.000
    C2      C    0.33450   0.60828   0.18440   1.000
    C2      C    0.66550   0.39172   0.18440   1.000
    C2      C    0.33450   0.39172   0.81560   1.000
    C2      C    0.16550   0.81560   0.60828   1.000
    C2      C    0.83450   0.18440   0.60828   1.000
    C2      C    0.16550   0.18440   0.39172   1.000
    C2      C    0.83450   0.81560   0.39172   1.000
    C2      C    0.81560   0.10828   0.66550   1.000
    C2      C    0.18440   0.10828   0.33450   1.000
    C2      C    0.18440   0.89172   0.66550   1.000
    C2      C    0.81560   0.89172   0.33450   1.000
    C2      C    0.10828   0.16550   0.31560   1.000
    C2      C    0.10828   0.83450   0.68440   1.000
    C2      C    0.89172   0.16550   0.68440   1.000
    C2      C    0.89172   0.83450   0.31560   1.000
    C3      C    0.21726   0.82150   0.06110   1.000
    C3      C    0.21726   0.17850   0.93890   1.000
    C3      C    0.78274   0.82150   0.93890   1.000
    C3      C    0.06110   0.78274   0.17850   1.000
    C3      C    0.06110   0.21726   0.82150   1.000
    C3      C    0.93890   0.21726   0.17850   1.000
    C3      C    0.93890   0.78274   0.82150   1.000
    C3      C    0.17850   0.06110   0.78274   1.000
    C3      C    0.82150   0.06110   0.21726   1.000
    C3      C    0.17850   0.93890   0.21726   1.000
    C3      C    0.82150   0.93890   0.78274   1.000
    C3      C    0.67850   0.28274   0.56110   1.000
    C3      C    0.32150   0.71726   0.56110   1.000
    C3      C    0.67850   0.71726   0.43890   1.000
    C3      C    0.32150   0.28274   0.43890   1.000
    C3      C    0.28274   0.56110   0.67850   1.000
    C3      C    0.71726   0.56110   0.32150   1.000
    C3      C    0.71726   0.43890   0.67850   1.000
    C3      C    0.28274   0.43890   0.32150   1.000
    C3      C    0.56110   0.67850   0.28274   1.000
    C3      C    0.56110   0.32150   0.71726   1.000
    C3      C    0.43890   0.67850   0.71726   1.000
    C3      C    0.43890   0.32150   0.28274   1.000
    C3      C    0.78274   0.67850   0.56110   1.000
    C3      C    0.21726   0.32150   0.56110   1.000
    C3      C    0.21726   0.67850   0.43890   1.000
    C3      C    0.78274   0.32150   0.43890   1.000
    C3      C    0.06110   0.28274   0.67850   1.000
    C3      C    0.06110   0.71726   0.32150   1.000
    C3      C    0.93890   0.71726   0.67850   1.000
    C3      C    0.93890   0.28274   0.32150   1.000
    C3      C    0.17850   0.56110   0.28274   1.000
    C3      C    0.82150   0.56110   0.71726   1.000
    C3      C    0.17850   0.43890   0.71726   1.000
    C3      C    0.82150   0.43890   0.28274   1.000
    C3      C    0.67850   0.78274   0.06110   1.000
    C3      C    0.32150   0.21726   0.06110   1.000
    C3      C    0.67850   0.21726   0.93890   1.000
    C3      C    0.32150   0.78274   0.93890   1.000
    C3      C    0.28274   0.06110   0.17850   1.000
    C3      C    0.71726   0.06110   0.82150   1.000
    C3      C    0.71726   0.93890   0.17850   1.000
    C3      C    0.28274   0.93890   0.82150   1.000
    C3      C    0.56110   0.17850   0.78274   1.000
    C3      C    0.56110   0.82150   0.21726   1.000
    C3      C    0.43890   0.17850   0.21726   1.000
    C3      C    0.43890   0.82150   0.78274   1.000
    C3      C    0.28274   0.17850   0.56110   1.000
    C3      C    0.71726   0.82150   0.56110   1.000
    C3      C    0.71726   0.17850   0.43890   1.000
    C3      C    0.28274   0.82150   0.43890   1.000
    C3      C    0.56110   0.78274   0.67850   1.000
    C3      C    0.56110   0.21726   0.32150   1.000
    C3      C    0.43890   0.21726   0.67850   1.000
    C3      C    0.43890   0.78274   0.32150   1.000
    C3      C    0.67850   0.06110   0.28274   1.000
    C3      C    0.32150   0.06110   0.71726   1.000
    C3      C    0.67850   0.93890   0.71726   1.000
    C3      C    0.32150   0.93890   0.28274   1.000
    C3      C    0.17850   0.28274   0.06110   1.000
    C3      C    0.82150   0.71726   0.06110   1.000
    C3      C    0.17850   0.71726   0.93890   1.000
    C3      C    0.82150   0.28274   0.93890   1.000
    C3      C    0.78274   0.56110   0.17850   1.000
    C3      C    0.21726   0.56110   0.82150   1.000
    C3      C    0.21726   0.43890   0.17850   1.000
    C3      C    0.78274   0.43890   0.82150   1.000
    C3      C    0.06110   0.67850   0.78274   1.000
    C3      C    0.06110   0.32150   0.21726   1.000
    C3      C    0.93890   0.67850   0.21726   1.000
    C3      C    0.93890   0.32150   0.78274   1.000
    C3      C    0.28274   0.67850   0.06110   1.000
    C3      C    0.71726   0.32150   0.06110   1.000
    C3      C    0.71726   0.67850   0.93890   1.000
    C3      C    0.28274   0.32150   0.93890   1.000
    C3      C    0.56110   0.28274   0.17850   1.000
    C3      C    0.56110   0.71726   0.82150   1.000
    C3      C    0.43890   0.71726   0.17850   1.000
    C3      C    0.43890   0.28274   0.82150   1.000
    C3      C    0.67850   0.56110   0.78274   1.000
    C3      C    0.32150   0.56110   0.21726   1.000
    C3      C    0.67850   0.43890   0.21726   1.000
    C3      C    0.32150   0.43890   0.78274   1.000
    C3      C    0.17850   0.78274   0.56110   1.000
    C3      C    0.82150   0.21726   0.56110   1.000
    C3      C    0.17850   0.21726   0.43890   1.000
    C3      C    0.82150   0.78274   0.43890   1.000
    C3      C    0.78274   0.06110   0.67850   1.000
    C3      C    0.21726   0.06110   0.32150   1.000
    C3      C    0.21726   0.93890   0.67850   1.000
    C3      C    0.78274   0.93890   0.32150   1.000
    C3      C    0.06110   0.17850   0.28274   1.000
    C3      C    0.06110   0.82150   0.71726   1.000
    C3      C    0.93890   0.17850   0.71726   1.000
    C3      C    0.93890   0.82150   0.28274   1.000
    C4      C    0.23999   0.77849   0.98142   1.000
    C4      C    0.23999   0.22151   0.01858   1.000
    C4      C    0.76001   0.77849   0.01858   1.000
    C4      C    0.98142   0.76001   0.22151   1.000
    C4      C    0.98142   0.23999   0.77849   1.000
    C4      C    0.01858   0.23999   0.22151   1.000
    C4      C    0.01858   0.76001   0.77849   1.000
    C4      C    0.22151   0.98142   0.76001   1.000
    C4      C    0.77849   0.98142   0.23999   1.000
    C4      C    0.22151   0.01858   0.23999   1.000
    C4      C    0.77849   0.01858   0.76001   1.000
    C4      C    0.72151   0.26001   0.48142   1.000
    C4      C    0.27849   0.73999   0.48142   1.000
    C4      C    0.72151   0.73999   0.51858   1.000
    C4      C    0.27849   0.26001   0.51858   1.000
    C4      C    0.26001   0.48142   0.72151   1.000
    C4      C    0.73999   0.48142   0.27849   1.000
    C4      C    0.73999   0.51858   0.72151   1.000
    C4      C    0.26001   0.51858   0.27849   1.000
    C4      C    0.48142   0.72151   0.26001   1.000
    C4      C    0.48142   0.27849   0.73999   1.000
    C4      C    0.51858   0.72151   0.73999   1.000
    C4      C    0.51858   0.27849   0.26001   1.000
    C4      C    0.76001   0.72151   0.48142   1.000
    C4      C    0.23999   0.27849   0.48142   1.000
    C4      C    0.23999   0.72151   0.51858   1.000
    C4      C    0.76001   0.27849   0.51858   1.000
    C4      C    0.98142   0.26001   0.72151   1.000
    C4      C    0.98142   0.73999   0.27849   1.000
    C4      C    0.01858   0.73999   0.72151   1.000
    C4      C    0.01858   0.26001   0.27849   1.000
    C4      C    0.22151   0.48142   0.26001   1.000
    C4      C    0.77849   0.48142   0.73999   1.000
    C4      C    0.22151   0.51858   0.73999   1.000
    C4      C    0.77849   0.51858   0.26001   1.000
    C4      C    0.72151   0.76001   0.98142   1.000
    C4      C    0.27849   0.23999   0.98142   1.000
    C4      C    0.72151   0.23999   0.01858   1.000
    C4      C    0.27849   0.76001   0.01858   1.000
    C4      C    0.26001   0.98142   0.22151   1.000
    C4      C    0.73999   0.98142   0.77849   1.000
    C4      C    0.73999   0.01858   0.22151   1.000
    C4      C    0.26001   0.01858   0.77849   1.000
    C4      C    0.48142   0.22151   0.76001   1.000
    C4      C    0.48142   0.77849   0.23999   1.000
    C4      C    0.51858   0.22151   0.23999   1.000
    C4      C    0.51858   0.77849   0.76001   1.000
    C4      C    0.26001   0.22151   0.48142   1.000
    C4      C    0.73999   0.77849   0.48142   1.000
    C4      C    0.73999   0.22151   0.51858   1.000
    C4      C    0.26001   0.77849   0.51858   1.000
    C4      C    0.48142   0.76001   0.72151   1.000
    C4      C    0.48142   0.23999   0.27849   1.000
    C4      C    0.51858   0.23999   0.72151   1.000
    C4      C    0.51858   0.76001   0.27849   1.000
    C4      C    0.72151   0.98142   0.26001   1.000
    C4      C    0.27849   0.98142   0.73999   1.000
    C4      C    0.72151   0.01858   0.73999   1.000
    C4      C    0.27849   0.01858   0.26001   1.000
    C4      C    0.22151   0.26001   0.98142   1.000
    C4      C    0.77849   0.73999   0.98142   1.000
    C4      C    0.22151   0.73999   0.01858   1.000
    C4      C    0.77849   0.26001   0.01858   1.000
    C4      C    0.76001   0.48142   0.22151   1.000
    C4      C    0.23999   0.48142   0.77849   1.000
    C4      C    0.23999   0.51858   0.22151   1.000
    C4      C    0.76001   0.51858   0.77849   1.000
    C4      C    0.98142   0.72151   0.76001   1.000
    C4      C    0.98142   0.27849   0.23999   1.000
    C4      C    0.01858   0.72151   0.23999   1.000
    C4      C    0.01858   0.27849   0.76001   1.000
    C4      C    0.26001   0.72151   0.98142   1.000
    C4      C    0.73999   0.27849   0.98142   1.000
    C4      C    0.73999   0.72151   0.01858   1.000
    C4      C    0.26001   0.27849   0.01858   1.000
    C4      C    0.48142   0.26001   0.22151   1.000
    C4      C    0.48142   0.73999   0.77849   1.000
    C4      C    0.51858   0.73999   0.22151   1.000
    C4      C    0.51858   0.26001   0.77849   1.000
    C4      C    0.72151   0.48142   0.76001   1.000
    C4      C    0.27849   0.48142   0.23999   1.000
    C4      C    0.72151   0.51858   0.23999   1.000
    C4      C    0.27849   0.51858   0.76001   1.000
    C4      C    0.22151   0.76001   0.48142   1.000
    C4      C    0.77849   0.23999   0.48142   1.000
    C4      C    0.22151   0.23999   0.51858   1.000
    C4      C    0.77849   0.76001   0.51858   1.000
    C4      C    0.76001   0.98142   0.72151   1.000
    C4      C    0.23999   0.98142   0.27849   1.000
    C4      C    0.23999   0.01858   0.72151   1.000
    C4      C    0.76001   0.01858   0.27849   1.000
    C4      C    0.98142   0.22151   0.26001   1.000
    C4      C    0.98142   0.77849   0.73999   1.000
    C4      C    0.01858   0.22151   0.73999   1.000
    C4      C    0.01858   0.77849   0.26001   1.000
    C5      C    0.20740   0.78940   0.93060   1.000
    C5      C    0.20740   0.21060   0.06940   1.000
    C5      C    0.79260   0.78940   0.06940   1.000
    C5      C    0.93060   0.79260   0.21060   1.000
    C5      C    0.93060   0.20740   0.78940   1.000
    C5      C    0.06940   0.20740   0.21060   1.000
    C5      C    0.06940   0.79260   0.78940   1.000
    C5      C    0.21060   0.93060   0.79260   1.000
    C5      C    0.78940   0.93060   0.20740   1.000
    C5      C    0.21060   0.06940   0.20740   1.000
    C5      C    0.78940   0.06940   0.79260   1.000
    C5      C    0.71060   0.29260   0.43060   1.000
    C5      C    0.28940   0.70740   0.43060   1.000
    C5      C    0.71060   0.70740   0.56940   1.000
    C5      C    0.28940   0.29260   0.56940   1.000
    C5      C    0.29260   0.43060   0.71060   1.000
    C5      C    0.70740   0.43060   0.28940   1.000
    C5      C    0.70740   0.56940   0.71060   1.000
    C5      C    0.29260   0.56940   0.28940   1.000
    C5      C    0.43060   0.71060   0.29260   1.000
    C5      C    0.43060   0.28940   0.70740   1.000
    C5      C    0.56940   0.71060   0.70740   1.000
    C5      C    0.56940   0.28940   0.29260   1.000
    C5      C    0.79260   0.71060   0.43060   1.000
    C5      C    0.20740   0.28940   0.43060   1.000
    C5      C    0.20740   0.71060   0.56940   1.000
    C5      C    0.79260   0.28940   0.56940   1.000
    C5      C    0.93060   0.29260   0.71060   1.000
    C5      C    0.93060   0.70740   0.28940   1.000
    C5      C    0.06940   0.70740   0.71060   1.000
    C5      C    0.06940   0.29260   0.28940   1.000
    C5      C    0.21060   0.43060   0.29260   1.000
    C5      C    0.78940   0.43060   0.70740   1.000
    C5      C    0.21060   0.56940   0.70740   1.000
    C5      C    0.78940   0.56940   0.29260   1.000
    C5      C    0.71060   0.79260   0.93060   1.000
    C5      C    0.28940   0.20740   0.93060   1.000
    C5      C    0.71060   0.20740   0.06940   1.000
    C5      C    0.28940   0.79260   0.06940   1.000
    C5      C    0.29260   0.93060   0.21060   1.000
    C5      C    0.70740   0.93060   0.78940   1.000
    C5      C    0.70740   0.06940   0.21060   1.000
    C5      C    0.29260   0.06940   0.78940   1.000
    C5      C    0.43060   0.21060   0.79260   1.000
    C5      C    0.43060   0.78940   0.20740   1.000
    C5      C    0.56940   0.21060   0.20740   1.000
    C5      C    0.56940   0.78940   0.79260   1.000
    C5      C    0.29260   0.21060   0.43060   1.000
    C5      C    0.70740   0.78940   0.43060   1.000
    C5      C    0.70740   0.21060   0.56940   1.000
    C5      C    0.29260   0.78940   0.56940   1.000
    C5      C    0.43060   0.79260   0.71060   1.000
    C5      C    0.43060   0.20740   0.28940   1.000
    C5      C    0.56940   0.20740   0.71060   1.000
    C5      C    0.56940   0.79260   0.28940   1.000
    C5      C    0.71060   0.93060   0.29260   1.000
    C5      C    0.28940   0.93060   0.70740   1.000
    C5      C    0.71060   0.06940   0.70740   1.000
    C5      C    0.28940   0.06940   0.29260   1.000
    C5      C    0.21060   0.29260   0.93060   1.000
    C5      C    0.78940   0.70740   0.93060   1.000
    C5      C    0.21060   0.70740   0.06940   1.000
    C5      C    0.78940   0.29260   0.06940   1.000
    C5      C    0.79260   0.43060   0.21060   1.000
    C5      C    0.20740   0.43060   0.78940   1.000
    C5      C    0.20740   0.56940   0.21060   1.000
    C5      C    0.79260   0.56940   0.78940   1.000
    C5      C    0.93060   0.71060   0.79260   1.000
    C5      C    0.93060   0.28940   0.20740   1.000
    C5      C    0.06940   0.71060   0.20740   1.000
    C5      C    0.06940   0.28940   0.79260   1.000
    C5      C    0.29260   0.71060   0.93060   1.000
    C5      C    0.70740   0.28940   0.93060   1.000
    C5      C    0.70740   0.71060   0.06940   1.000
    C5      C    0.29260   0.28940   0.06940   1.000
    C5      C    0.43060   0.29260   0.21060   1.000
    C5      C    0.43060   0.70740   0.78940   1.000
    C5      C    0.56940   0.70740   0.21060   1.000
    C5      C    0.56940   0.29260   0.78940   1.000
    C5      C    0.71060   0.43060   0.79260   1.000
    C5      C    0.28940   0.43060   0.20740   1.000
    C5      C    0.71060   0.56940   0.20740   1.000
    C5      C    0.28940   0.56940   0.79260   1.000
    C5      C    0.21060   0.79260   0.43060   1.000
    C5      C    0.78940   0.20740   0.43060   1.000
    C5      C    0.21060   0.20740   0.56940   1.000
    C5      C    0.78940   0.79260   0.56940   1.000
    C5      C    0.79260   0.93060   0.71060   1.000
    C5      C    0.20740   0.93060   0.28940   1.000
    C5      C    0.20740   0.06940   0.71060   1.000
    C5      C    0.79260   0.06940   0.28940   1.000
    C5      C    0.93060   0.21060   0.29260   1.000
    C5      C    0.93060   0.78940   0.70740   1.000
    C5      C    0.06940   0.21060   0.70740   1.000
    C5      C    0.06940   0.78940   0.29260   1.000
    C6      C    0.24130   0.77840   0.88060   1.000
    C6      C    0.24130   0.22160   0.11940   1.000
    C6      C    0.75870   0.77840   0.11940   1.000
    C6      C    0.88060   0.75870   0.22160   1.000
    C6      C    0.88060   0.24130   0.77840   1.000
    C6      C    0.11940   0.24130   0.22160   1.000
    C6      C    0.11940   0.75870   0.77840   1.000
    C6      C    0.22160   0.88060   0.75870   1.000
    C6      C    0.77840   0.88060   0.24130   1.000
    C6      C    0.22160   0.11940   0.24130   1.000
    C6      C    0.77840   0.11940   0.75870   1.000
    C6      C    0.72160   0.25870   0.38060   1.000
    C6      C    0.27840   0.74130   0.38060   1.000
    C6      C    0.72160   0.74130   0.61940   1.000
    C6      C    0.27840   0.25870   0.61940   1.000
    C6      C    0.25870   0.38060   0.72160   1.000
    C6      C    0.74130   0.38060   0.27840   1.000
    C6      C    0.74130   0.61940   0.72160   1.000
    C6      C    0.25870   0.61940   0.27840   1.000
    C6      C    0.38060   0.72160   0.25870   1.000
    C6      C    0.38060   0.27840   0.74130   1.000
    C6      C    0.61940   0.72160   0.74130   1.000
    C6      C    0.61940   0.27840   0.25870   1.000
    C6      C    0.75870   0.72160   0.38060   1.000
    C6      C    0.24130   0.27840   0.38060   1.000
    C6      C    0.24130   0.72160   0.61940   1.000
    C6      C    0.75870   0.27840   0.61940   1.000
    C6      C    0.88060   0.25870   0.72160   1.000
    C6      C    0.88060   0.74130   0.27840   1.000
    C6      C    0.11940   0.74130   0.72160   1.000
    C6      C    0.11940   0.25870   0.27840   1.000
    C6      C    0.22160   0.38060   0.25870   1.000
    C6      C    0.77840   0.38060   0.74130   1.000
    C6      C    0.22160   0.61940   0.74130   1.000
    C6      C    0.77840   0.61940   0.25870   1.000
    C6      C    0.72160   0.75870   0.88060   1.000
    C6      C    0.27840   0.24130   0.88060   1.000
    C6      C    0.72160   0.24130   0.11940   1.000
    C6      C    0.27840   0.75870   0.11940   1.000
    C6      C    0.25870   0.88060   0.22160   1.000
    C6      C    0.74130   0.88060   0.77840   1.000
    C6      C    0.74130   0.11940   0.22160   1.000
    C6      C    0.25870   0.11940   0.77840   1.000
    C6      C    0.38060   0.22160   0.75870   1.000
    C6      C    0.38060   0.77840   0.24130   1.000
    C6      C    0.61940   0.22160   0.24130   1.000
    C6      C    0.61940   0.77840   0.75870   1.000
    C6      C    0.25870   0.22160   0.38060   1.000
    C6      C    0.74130   0.77840   0.38060   1.000
    C6      C    0.74130   0.22160   0.61940   1.000
    C6      C    0.25870   0.77840   0.61940   1.000
    C6      C    0.38060   0.75870   0.72160   1.000
    C6      C    0.38060   0.24130   0.27840   1.000
    C6      C    0.61940   0.24130   0.72160   1.000
    C6      C    0.61940   0.75870   0.27840   1.000
    C6      C    0.72160   0.88060   0.25870   1.000
    C6      C    0.27840   0.88060   0.74130   1.000
    C6      C    0.72160   0.11940   0.74130   1.000
    C6      C    0.27840   0.11940   0.25870   1.000
    C6      C    0.22160   0.25870   0.88060   1.000
    C6      C    0.77840   0.74130   0.88060   1.000
    C6      C    0.22160   0.74130   0.11940   1.000
    C6      C    0.77840   0.25870   0.11940   1.000
    C6      C    0.75870   0.38060   0.22160   1.000
    C6      C    0.24130   0.38060   0.77840   1.000
    C6      C    0.24130   0.61940   0.22160   1.000
    C6      C    0.75870   0.61940   0.77840   1.000
    C6      C    0.88060   0.72160   0.75870   1.000
    C6      C    0.88060   0.27840   0.24130   1.000
    C6      C    0.11940   0.72160   0.24130   1.000
    C6      C    0.11940   0.27840   0.75870   1.000
    C6      C    0.25870   0.72160   0.88060   1.000
    C6      C    0.74130   0.27840   0.88060   1.000
    C6      C    0.74130   0.72160   0.11940   1.000
    C6      C    0.25870   0.27840   0.11940   1.000
    C6      C    0.38060   0.25870   0.22160   1.000
    C6      C    0.38060   0.74130   0.77840   1.000
    C6      C    0.61940   0.74130   0.22160   1.000
    C6      C    0.61940   0.25870   0.77840   1.000
    C6      C    0.72160   0.38060   0.75870   1.000
    C6      C    0.27840   0.38060   0.24130   1.000
    C6      C    0.72160   0.61940   0.24130   1.000
    C6      C    0.27840   0.61940   0.75870   1.000
    C6      C    0.22160   0.75870   0.38060   1.000
    C6      C    0.77840   0.24130   0.38060   1.000
    C6      C    0.22160   0.24130   0.61940   1.000
    C6      C    0.77840   0.75870   0.61940   1.000
    C6      C    0.75870   0.88060   0.72160   1.000
    C6      C    0.24130   0.88060   0.27840   1.000
    C6      C    0.24130   0.11940   0.72160   1.000
    C6      C    0.75870   0.11940   0.27840   1.000
    C6      C    0.88060   0.22160   0.25870   1.000
    C6      C    0.88060   0.77840   0.74130   1.000
    C6      C    0.11940   0.22160   0.74130   1.000
    C6      C    0.11940   0.77840   0.25870   1.000
    H1      H    0.13100   0.77400   0.10060   1.000
    H1      H    0.13100   0.22600   0.89940   1.000
    H1      H    0.86900   0.77400   0.89940   1.000
    H1      H    0.10060   0.86900   0.22600   1.000
    H1      H    0.10060   0.13100   0.77400   1.000
    H1      H    0.89940   0.13100   0.22600   1.000
    H1      H    0.89940   0.86900   0.77400   1.000
    H1      H    0.22600   0.10060   0.86900   1.000
    H1      H    0.77400   0.10060   0.13100   1.000
    H1      H    0.22600   0.89940   0.13100   1.000
    H1      H    0.77400   0.89940   0.86900   1.000
    H1      H    0.72600   0.36900   0.60060   1.000
    H1      H    0.27400   0.63100   0.60060   1.000
    H1      H    0.72600   0.63100   0.39940   1.000
    H1      H    0.27400   0.36900   0.39940   1.000
    H1      H    0.36900   0.60060   0.72600   1.000
    H1      H    0.63100   0.60060   0.27400   1.000
    H1      H    0.63100   0.39940   0.72600   1.000
    H1      H    0.36900   0.39940   0.27400   1.000
    H1      H    0.60060   0.72600   0.36900   1.000
    H1      H    0.60060   0.27400   0.63100   1.000
    H1      H    0.39940   0.72600   0.63100   1.000
    H1      H    0.39940   0.27400   0.36900   1.000
    H1      H    0.86900   0.72600   0.60060   1.000
    H1      H    0.13100   0.27400   0.60060   1.000
    H1      H    0.13100   0.72600   0.39940   1.000
    H1      H    0.86900   0.27400   0.39940   1.000
    H1      H    0.10060   0.36900   0.72600   1.000
    H1      H    0.10060   0.63100   0.27400   1.000
    H1      H    0.89940   0.63100   0.72600   1.000
    H1      H    0.89940   0.36900   0.27400   1.000
    H1      H    0.22600   0.60060   0.36900   1.000
    H1      H    0.77400   0.60060   0.63100   1.000
    H1      H    0.22600   0.39940   0.63100   1.000
    H1      H    0.77400   0.39940   0.36900   1.000
    H1      H    0.72600   0.86900   0.10060   1.000
    H1      H    0.27400   0.13100   0.10060   1.000
    H1      H    0.72600   0.13100   0.89940   1.000
    H1      H    0.27400   0.86900   0.89940   1.000
    H1      H    0.36900   0.10060   0.22600   1.000
    H1      H    0.63100   0.10060   0.77400   1.000
    H1      H    0.63100   0.89940   0.22600   1.000
    H1      H    0.36900   0.89940   0.77400   1.000
    H1      H    0.60060   0.22600   0.86900   1.000
    H1      H    0.60060   0.77400   0.13100   1.000
    H1      H    0.39940   0.22600   0.13100   1.000
    H1      H    0.39940   0.77400   0.86900   1.000
    H1      H    0.36900   0.22600   0.60060   1.000
    H1      H    0.63100   0.77400   0.60060   1.000
    H1      H    0.63100   0.22600   0.39940   1.000
    H1      H    0.36900   0.77400   0.39940   1.000
    H1      H    0.60060   0.86900   0.72600   1.000
    H1      H    0.60060   0.13100   0.27400   1.000
    H1      H    0.39940   0.13100   0.72600   1.000
    H1      H    0.39940   0.86900   0.27400   1.000
    H1      H    0.72600   0.10060   0.36900   1.000
    H1      H    0.27400   0.10060   0.63100   1.000
    H1      H    0.72600   0.89940   0.63100   1.000
    H1      H    0.27400   0.89940   0.36900   1.000
    H1      H    0.22600   0.36900   0.10060   1.000
    H1      H    0.77400   0.63100   0.10060   1.000
    H1      H    0.22600   0.63100   0.89940   1.000
    H1      H    0.77400   0.36900   0.89940   1.000
    H1      H    0.86900   0.60060   0.22600   1.000
    H1      H    0.13100   0.60060   0.77400   1.000
    H1      H    0.13100   0.39940   0.22600   1.000
    H1      H    0.86900   0.39940   0.77400   1.000
    H1      H    0.10060   0.72600   0.86900   1.000
    H1      H    0.10060   0.27400   0.13100   1.000
    H1      H    0.89940   0.72600   0.13100   1.000
    H1      H    0.89940   0.27400   0.86900   1.000
    H1      H    0.36900   0.72600   0.10060   1.000
    H1      H    0.63100   0.27400   0.10060   1.000
    H1      H    0.63100   0.72600   0.89940   1.000
    H1      H    0.36900   0.27400   0.89940   1.000
    H1      H    0.60060   0.36900   0.22600   1.000
    H1      H    0.60060   0.63100   0.77400   1.000
    H1      H    0.39940   0.63100   0.22600   1.000
    H1      H    0.39940   0.36900   0.77400   1.000
    H1      H    0.72600   0.60060   0.86900   1.000
    H1      H    0.27400   0.60060   0.13100   1.000
    H1      H    0.72600   0.39940   0.13100   1.000
    H1      H    0.27400   0.39940   0.86900   1.000
    H1      H    0.22600   0.86900   0.60060   1.000
    H1      H    0.77400   0.13100   0.60060   1.000
    H1      H    0.22600   0.13100   0.39940   1.000
    H1      H    0.77400   0.86900   0.39940   1.000
    H1      H    0.86900   0.10060   0.72600   1.000
    H1      H    0.13100   0.10060   0.27400   1.000
    H1      H    0.13100   0.89940   0.72600   1.000
    H1      H    0.86900   0.89940   0.27400   1.000
    H1      H    0.10060   0.22600   0.36900   1.000
    H1      H    0.10060   0.77400   0.63100   1.000
    H1      H    0.89940   0.22600   0.63100   1.000
    H1      H    0.89940   0.77400   0.36900   1.000
    H3      H    0.24910   0.84060   0.05590   1.000
    H3      H    0.24910   0.15940   0.94410   1.000
    H3      H    0.75090   0.84060   0.94410   1.000
    H3      H    0.05590   0.75090   0.15940   1.000
    H3      H    0.05590   0.24910   0.84060   1.000
    H3      H    0.94410   0.24910   0.15940   1.000
    H3      H    0.94410   0.75090   0.84060   1.000
    H3      H    0.15940   0.05590   0.75090   1.000
    H3      H    0.84060   0.05590   0.24910   1.000
    H3      H    0.15940   0.94410   0.24910   1.000
    H3      H    0.84060   0.94410   0.75090   1.000
    H3      H    0.65940   0.25090   0.55590   1.000
    H3      H    0.34060   0.74910   0.55590   1.000
    H3      H    0.65940   0.74910   0.44410   1.000
    H3      H    0.34060   0.25090   0.44410   1.000
    H3      H    0.25090   0.55590   0.65940   1.000
    H3      H    0.74910   0.55590   0.34060   1.000
    H3      H    0.74910   0.44410   0.65940   1.000
    H3      H    0.25090   0.44410   0.34060   1.000
    H3      H    0.55590   0.65940   0.25090   1.000
    H3      H    0.55590   0.34060   0.74910   1.000
    H3      H    0.44410   0.65940   0.74910   1.000
    H3      H    0.44410   0.34060   0.25090   1.000
    H3      H    0.75090   0.65940   0.55590   1.000
    H3      H    0.24910   0.34060   0.55590   1.000
    H3      H    0.24910   0.65940   0.44410   1.000
    H3      H    0.75090   0.34060   0.44410   1.000
    H3      H    0.05590   0.25090   0.65940   1.000
    H3      H    0.05590   0.74910   0.34060   1.000
    H3      H    0.94410   0.74910   0.65940   1.000
    H3      H    0.94410   0.25090   0.34060   1.000
    H3      H    0.15940   0.55590   0.25090   1.000
    H3      H    0.84060   0.55590   0.74910   1.000
    H3      H    0.15940   0.44410   0.74910   1.000
    H3      H    0.84060   0.44410   0.25090   1.000
    H3      H    0.65940   0.75090   0.05590   1.000
    H3      H    0.34060   0.24910   0.05590   1.000
    H3      H    0.65940   0.24910   0.94410   1.000
    H3      H    0.34060   0.75090   0.94410   1.000
    H3      H    0.25090   0.05590   0.15940   1.000
    H3      H    0.74910   0.05590   0.84060   1.000
    H3      H    0.74910   0.94410   0.15940   1.000
    H3      H    0.25090   0.94410   0.84060   1.000
    H3      H    0.55590   0.15940   0.75090   1.000
    H3      H    0.55590   0.84060   0.24910   1.000
    H3      H    0.44410   0.15940   0.24910   1.000
    H3      H    0.44410   0.84060   0.75090   1.000
    H3      H    0.25090   0.15940   0.55590   1.000
    H3      H    0.74910   0.84060   0.55590   1.000
    H3      H    0.74910   0.15940   0.44410   1.000
    H3      H    0.25090   0.84060   0.44410   1.000
    H3      H    0.55590   0.75090   0.65940   1.000
    H3      H    0.55590   0.24910   0.34060   1.000
    H3      H    0.44410   0.24910   0.65940   1.000
    H3      H    0.44410   0.75090   0.34060   1.000
    H3      H    0.65940   0.05590   0.25090   1.000
    H3      H    0.34060   0.05590   0.74910   1.000
    H3      H    0.65940   0.94410   0.74910   1.000
    H3      H    0.34060   0.94410   0.25090   1.000
    H3      H    0.15940   0.25090   0.05590   1.000
    H3      H    0.84060   0.74910   0.05590   1.000
    H3      H    0.15940   0.74910   0.94410   1.000
    H3      H    0.84060   0.25090   0.94410   1.000
    H3      H    0.75090   0.55590   0.15940   1.000
    H3      H    0.24910   0.55590   0.84060   1.000
    H3      H    0.24910   0.44410   0.15940   1.000
    H3      H    0.75090   0.44410   0.84060   1.000
    H3      H    0.05590   0.65940   0.75090   1.000
    H3      H    0.05590   0.34060   0.24910   1.000
    H3      H    0.94410   0.65940   0.24910   1.000
    H3      H    0.94410   0.34060   0.75090   1.000
    H3      H    0.25090   0.65940   0.05590   1.000
    H3      H    0.74910   0.34060   0.05590   1.000
    H3      H    0.74910   0.65940   0.94410   1.000
    H3      H    0.25090   0.34060   0.94410   1.000
    H3      H    0.55590   0.25090   0.15940   1.000
    H3      H    0.55590   0.74910   0.84060   1.000
    H3      H    0.44410   0.74910   0.15940   1.000
    H3      H    0.44410   0.25090   0.84060   1.000
    H3      H    0.65940   0.55590   0.75090   1.000
    H3      H    0.34060   0.55590   0.24910   1.000
    H3      H    0.65940   0.44410   0.24910   1.000
    H3      H    0.34060   0.44410   0.75090   1.000
    H3      H    0.15940   0.75090   0.55590   1.000
    H3      H    0.84060   0.24910   0.55590   1.000
    H3      H    0.15940   0.24910   0.44410   1.000
    H3      H    0.84060   0.75090   0.44410   1.000
    H3      H    0.75090   0.05590   0.65940   1.000
    H3      H    0.24910   0.05590   0.34060   1.000
    H3      H    0.24910   0.94410   0.65940   1.000
    H3      H    0.75090   0.94410   0.34060   1.000
    H3      H    0.05590   0.15940   0.25090   1.000
    H3      H    0.05590   0.84060   0.74910   1.000
    H3      H    0.94410   0.15940   0.74910   1.000
    H3      H    0.94410   0.84060   0.25090   1.000
    H4      H    0.27060   0.80340   0.98330   1.000
    H4      H    0.27060   0.19660   0.01670   1.000
    H4      H    0.72940   0.80340   0.01670   1.000
    H4      H    0.98330   0.72940   0.19660   1.000
    H4      H    0.98330   0.27060   0.80340   1.000
    H4      H    0.01670   0.27060   0.19660   1.000
    H4      H    0.01670   0.72940   0.80340   1.000
    H4      H    0.19660   0.98330   0.72940   1.000
    H4      H    0.80340   0.98330   0.27060   1.000
    H4      H    0.19660   0.01670   0.27060   1.000
    H4      H    0.80340   0.01670   0.72940   1.000
    H4      H    0.69660   0.22940   0.48330   1.000
    H4      H    0.30340   0.77060   0.48330   1.000
    H4      H    0.69660   0.77060   0.51670   1.000
    H4      H    0.30340   0.22940   0.51670   1.000
    H4      H    0.22940   0.48330   0.69660   1.000
    H4      H    0.77060   0.48330   0.30340   1.000
    H4      H    0.77060   0.51670   0.69660   1.000
    H4      H    0.22940   0.51670   0.30340   1.000
    H4      H    0.48330   0.69660   0.22940   1.000
    H4      H    0.48330   0.30340   0.77060   1.000
    H4      H    0.51670   0.69660   0.77060   1.000
    H4      H    0.51670   0.30340   0.22940   1.000
    H4      H    0.72940   0.69660   0.48330   1.000
    H4      H    0.27060   0.30340   0.48330   1.000
    H4      H    0.27060   0.69660   0.51670   1.000
    H4      H    0.72940   0.30340   0.51670   1.000
    H4      H    0.98330   0.22940   0.69660   1.000
    H4      H    0.98330   0.77060   0.30340   1.000
    H4      H    0.01670   0.77060   0.69660   1.000
    H4      H    0.01670   0.22940   0.30340   1.000
    H4      H    0.19660   0.48330   0.22940   1.000
    H4      H    0.80340   0.48330   0.77060   1.000
    H4      H    0.19660   0.51670   0.77060   1.000
    H4      H    0.80340   0.51670   0.22940   1.000
    H4      H    0.69660   0.72940   0.98330   1.000
    H4      H    0.30340   0.27060   0.98330   1.000
    H4      H    0.69660   0.27060   0.01670   1.000
    H4      H    0.30340   0.72940   0.01670   1.000
    H4      H    0.22940   0.98330   0.19660   1.000
    H4      H    0.77060   0.98330   0.80340   1.000
    H4      H    0.77060   0.01670   0.19660   1.000
    H4      H    0.22940   0.01670   0.80340   1.000
    H4      H    0.48330   0.19660   0.72940   1.000
    H4      H    0.48330   0.80340   0.27060   1.000
    H4      H    0.51670   0.19660   0.27060   1.000
    H4      H    0.51670   0.80340   0.72940   1.000
    H4      H    0.22940   0.19660   0.48330   1.000
    H4      H    0.77060   0.80340   0.48330   1.000
    H4      H    0.77060   0.19660   0.51670   1.000
    H4      H    0.22940   0.80340   0.51670   1.000
    H4      H    0.48330   0.72940   0.69660   1.000
    H4      H    0.48330   0.27060   0.30340   1.000
    H4      H    0.51670   0.27060   0.69660   1.000
    H4      H    0.51670   0.72940   0.30340   1.000
    H4      H    0.69660   0.98330   0.22940   1.000
    H4      H    0.30340   0.98330   0.77060   1.000
    H4      H    0.69660   0.01670   0.77060   1.000
    H4      H    0.30340   0.01670   0.22940   1.000
    H4      H    0.19660   0.22940   0.98330   1.000
    H4      H    0.80340   0.77060   0.98330   1.000
    H4      H    0.19660   0.77060   0.01670   1.000
    H4      H    0.80340   0.22940   0.01670   1.000
    H4      H    0.72940   0.48330   0.19660   1.000
    H4      H    0.27060   0.48330   0.80340   1.000
    H4      H    0.27060   0.51670   0.19660   1.000
    H4      H    0.72940   0.51670   0.80340   1.000
    H4      H    0.98330   0.69660   0.72940   1.000
    H4      H    0.98330   0.30340   0.27060   1.000
    H4      H    0.01670   0.69660   0.27060   1.000
    H4      H    0.01670   0.30340   0.72940   1.000
    H4      H    0.22940   0.69660   0.98330   1.000
    H4      H    0.77060   0.30340   0.98330   1.000
    H4      H    0.77060   0.69660   0.01670   1.000
    H4      H    0.22940   0.30340   0.01670   1.000
    H4      H    0.48330   0.22940   0.19660   1.000
    H4      H    0.48330   0.77060   0.80340   1.000
    H4      H    0.51670   0.77060   0.19660   1.000
    H4      H    0.51670   0.22940   0.80340   1.000
    H4      H    0.69660   0.48330   0.72940   1.000
    H4      H    0.30340   0.48330   0.27060   1.000
    H4      H    0.69660   0.51670   0.27060   1.000
    H4      H    0.30340   0.51670   0.72940   1.000
    H4      H    0.19660   0.72940   0.48330   1.000
    H4      H    0.80340   0.27060   0.48330   1.000
    H4      H    0.19660   0.27060   0.51670   1.000
    H4      H    0.80340   0.72940   0.51670   1.000
    H4      H    0.72940   0.98330   0.69660   1.000
    H4      H    0.27060   0.98330   0.30340   1.000
    H4      H    0.27060   0.01670   0.69660   1.000
    H4      H    0.72940   0.01670   0.30340   1.000
    H4      H    0.98330   0.19660   0.22940   1.000
    H4      H    0.98330   0.80340   0.77060   1.000
    H4      H    0.01670   0.19660   0.77060   1.000
    H4      H    0.01670   0.80340   0.22940   1.000
    H5A     H    0.19550   0.82670   0.93040   1.000
    H5A     H    0.19550   0.17330   0.06960   1.000
    H5A     H    0.80450   0.82670   0.06960   1.000
    H5A     H    0.93040   0.80450   0.17330   1.000
    H5A     H    0.93040   0.19550   0.82670   1.000
    H5A     H    0.06960   0.19550   0.17330   1.000
    H5A     H    0.06960   0.80450   0.82670   1.000
    H5A     H    0.17330   0.93040   0.80450   1.000
    H5A     H    0.82670   0.93040   0.19550   1.000
    H5A     H    0.17330   0.06960   0.19550   1.000
    H5A     H    0.82670   0.06960   0.80450   1.000
    H5A     H    0.67330   0.30450   0.43040   1.000
    H5A     H    0.32670   0.69550   0.43040   1.000
    H5A     H    0.67330   0.69550   0.56960   1.000
    H5A     H    0.32670   0.30450   0.56960   1.000
    H5A     H    0.30450   0.43040   0.67330   1.000
    H5A     H    0.69550   0.43040   0.32670   1.000
    H5A     H    0.69550   0.56960   0.67330   1.000
    H5A     H    0.30450   0.56960   0.32670   1.000
    H5A     H    0.43040   0.67330   0.30450   1.000
    H5A     H    0.43040   0.32670   0.69550   1.000
    H5A     H    0.56960   0.67330   0.69550   1.000
    H5A     H    0.56960   0.32670   0.30450   1.000
    H5A     H    0.80450   0.67330   0.43040   1.000
    H5A     H    0.19550   0.32670   0.43040   1.000
    H5A     H    0.19550   0.67330   0.56960   1.000
    H5A     H    0.80450   0.32670   0.56960   1.000
    H5A     H    0.93040   0.30450   0.67330   1.000
    H5A     H    0.93040   0.69550   0.32670   1.000
    H5A     H    0.06960   0.69550   0.67330   1.000
    H5A     H    0.06960   0.30450   0.32670   1.000
    H5A     H    0.17330   0.43040   0.30450   1.000
    H5A     H    0.82670   0.43040   0.69550   1.000
    H5A     H    0.17330   0.56960   0.69550   1.000
    H5A     H    0.82670   0.56960   0.30450   1.000
    H5A     H    0.67330   0.80450   0.93040   1.000
    H5A     H    0.32670   0.19550   0.93040   1.000
    H5A     H    0.67330   0.19550   0.06960   1.000
    H5A     H    0.32670   0.80450   0.06960   1.000
    H5A     H    0.30450   0.93040   0.17330   1.000
    H5A     H    0.69550   0.93040   0.82670   1.000
    H5A     H    0.69550   0.06960   0.17330   1.000
    H5A     H    0.30450   0.06960   0.82670   1.000
    H5A     H    0.43040   0.17330   0.80450   1.000
    H5A     H    0.43040   0.82670   0.19550   1.000
    H5A     H    0.56960   0.17330   0.19550   1.000
    H5A     H    0.56960   0.82670   0.80450   1.000
    H5A     H    0.30450   0.17330   0.43040   1.000
    H5A     H    0.69550   0.82670   0.43040   1.000
    H5A     H    0.69550   0.17330   0.56960   1.000
    H5A     H    0.30450   0.82670   0.56960   1.000
    H5A     H    0.43040   0.80450   0.67330   1.000
    H5A     H    0.43040   0.19550   0.32670   1.000
    H5A     H    0.56960   0.19550   0.67330   1.000
    H5A     H    0.56960   0.80450   0.32670   1.000
    H5A     H    0.67330   0.93040   0.30450   1.000
    H5A     H    0.32670   0.93040   0.69550   1.000
    H5A     H    0.67330   0.06960   0.69550   1.000
    H5A     H    0.32670   0.06960   0.30450   1.000
    H5A     H    0.17330   0.30450   0.93040   1.000
    H5A     H    0.82670   0.69550   0.93040   1.000
    H5A     H    0.17330   0.69550   0.06960   1.000
    H5A     H    0.82670   0.30450   0.06960   1.000
    H5A     H    0.80450   0.43040   0.17330   1.000
    H5A     H    0.19550   0.43040   0.82670   1.000
    H5A     H    0.19550   0.56960   0.17330   1.000
    H5A     H    0.80450   0.56960   0.82670   1.000
    H5A     H    0.93040   0.67330   0.80450   1.000
    H5A     H    0.93040   0.32670   0.19550   1.000
    H5A     H    0.06960   0.67330   0.19550   1.000
    H5A     H    0.06960   0.32670   0.80450   1.000
    H5A     H    0.30450   0.67330   0.93040   1.000
    H5A     H    0.69550   0.32670   0.93040   1.000
    H5A     H    0.69550   0.67330   0.06960   1.000
    H5A     H    0.30450   0.32670   0.06960   1.000
    H5A     H    0.43040   0.30450   0.17330   1.000
    H5A     H    0.43040   0.69550   0.82670   1.000
    H5A     H    0.56960   0.69550   0.17330   1.000
    H5A     H    0.56960   0.30450   0.82670   1.000
    H5A     H    0.67330   0.43040   0.80450   1.000
    H5A     H    0.32670   0.43040   0.19550   1.000
    H5A     H    0.67330   0.56960   0.19550   1.000
    H5A     H    0.32670   0.56960   0.80450   1.000
    H5A     H    0.17330   0.80450   0.43040   1.000
    H5A     H    0.82670   0.19550   0.43040   1.000
    H5A     H    0.17330   0.19550   0.56960   1.000
    H5A     H    0.82670   0.80450   0.56960   1.000
    H5A     H    0.80450   0.93040   0.67330   1.000
    H5A     H    0.19550   0.93040   0.32670   1.000
    H5A     H    0.19550   0.06960   0.67330   1.000
    H5A     H    0.80450   0.06960   0.32670   1.000
    H5A     H    0.93040   0.17330   0.30450   1.000
    H5A     H    0.93040   0.82670   0.69550   1.000
    H5A     H    0.06960   0.17330   0.69550   1.000
    H5A     H    0.06960   0.82670   0.30450   1.000
    H5B     H    0.17570   0.76650   0.93020   1.000
    H5B     H    0.17570   0.23350   0.06980   1.000
    H5B     H    0.82430   0.76650   0.06980   1.000
    H5B     H    0.93020   0.82430   0.23350   1.000
    H5B     H    0.93020   0.17570   0.76650   1.000
    H5B     H    0.06980   0.17570   0.23350   1.000
    H5B     H    0.06980   0.82430   0.76650   1.000
    H5B     H    0.23350   0.93020   0.82430   1.000
    H5B     H    0.76650   0.93020   0.17570   1.000
    H5B     H    0.23350   0.06980   0.17570   1.000
    H5B     H    0.76650   0.06980   0.82430   1.000
    H5B     H    0.73350   0.32430   0.43020   1.000
    H5B     H    0.26650   0.67570   0.43020   1.000
    H5B     H    0.73350   0.67570   0.56980   1.000
    H5B     H    0.26650   0.32430   0.56980   1.000
    H5B     H    0.32430   0.43020   0.73350   1.000
    H5B     H    0.67570   0.43020   0.26650   1.000
    H5B     H    0.67570   0.56980   0.73350   1.000
    H5B     H    0.32430   0.56980   0.26650   1.000
    H5B     H    0.43020   0.73350   0.32430   1.000
    H5B     H    0.43020   0.26650   0.67570   1.000
    H5B     H    0.56980   0.73350   0.67570   1.000
    H5B     H    0.56980   0.26650   0.32430   1.000
    H5B     H    0.82430   0.73350   0.43020   1.000
    H5B     H    0.17570   0.26650   0.43020   1.000
    H5B     H    0.17570   0.73350   0.56980   1.000
    H5B     H    0.82430   0.26650   0.56980   1.000
    H5B     H    0.93020   0.32430   0.73350   1.000
    H5B     H    0.93020   0.67570   0.26650   1.000
    H5B     H    0.06980   0.67570   0.73350   1.000
    H5B     H    0.06980   0.32430   0.26650   1.000
    H5B     H    0.23350   0.43020   0.32430   1.000
    H5B     H    0.76650   0.43020   0.67570   1.000
    H5B     H    0.23350   0.56980   0.67570   1.000
    H5B     H    0.76650   0.56980   0.32430   1.000
    H5B     H    0.73350   0.82430   0.93020   1.000
    H5B     H    0.26650   0.17570   0.93020   1.000
    H5B     H    0.73350   0.17570   0.06980   1.000
    H5B     H    0.26650   0.82430   0.06980   1.000
    H5B     H    0.32430   0.93020   0.23350   1.000
    H5B     H    0.67570   0.93020   0.76650   1.000
    H5B     H    0.67570   0.06980   0.23350   1.000
    H5B     H    0.32430   0.06980   0.76650   1.000
    H5B     H    0.43020   0.23350   0.82430   1.000
    H5B     H    0.43020   0.76650   0.17570   1.000
    H5B     H    0.56980   0.23350   0.17570   1.000
    H5B     H    0.56980   0.76650   0.82430   1.000
    H5B     H    0.32430   0.23350   0.43020   1.000
    H5B     H    0.67570   0.76650   0.43020   1.000
    H5B     H    0.67570   0.23350   0.56980   1.000
    H5B     H    0.32430   0.76650   0.56980   1.000
    H5B     H    0.43020   0.82430   0.73350   1.000
    H5B     H    0.43020   0.17570   0.26650   1.000
    H5B     H    0.56980   0.17570   0.73350   1.000
    H5B     H    0.56980   0.82430   0.26650   1.000
    H5B     H    0.73350   0.93020   0.32430   1.000
    H5B     H    0.26650   0.93020   0.67570   1.000
    H5B     H    0.73350   0.06980   0.67570   1.000
    H5B     H    0.26650   0.06980   0.32430   1.000
    H5B     H    0.23350   0.32430   0.93020   1.000
    H5B     H    0.76650   0.67570   0.93020   1.000
    H5B     H    0.23350   0.67570   0.06980   1.000
    H5B     H    0.76650   0.32430   0.06980   1.000
    H5B     H    0.82430   0.43020   0.23350   1.000
    H5B     H    0.17570   0.43020   0.76650   1.000
    H5B     H    0.17570   0.56980   0.23350   1.000
    H5B     H    0.82430   0.56980   0.76650   1.000
    H5B     H    0.93020   0.73350   0.82430   1.000
    H5B     H    0.93020   0.26650   0.17570   1.000
    H5B     H    0.06980   0.73350   0.17570   1.000
    H5B     H    0.06980   0.26650   0.82430   1.000
    H5B     H    0.32430   0.73350   0.93020   1.000
    H5B     H    0.67570   0.26650   0.93020   1.000
    H5B     H    0.67570   0.73350   0.06980   1.000
    H5B     H    0.32430   0.26650   0.06980   1.000
    H5B     H    0.43020   0.32430   0.23350   1.000
    H5B     H    0.43020   0.67570   0.76650   1.000
    H5B     H    0.56980   0.67570   0.23350   1.000
    H5B     H    0.56980   0.32430   0.76650   1.000
    H5B     H    0.73350   0.43020   0.82430   1.000
    H5B     H    0.26650   0.43020   0.17570   1.000
    H5B     H    0.73350   0.56980   0.17570   1.000
    H5B     H    0.26650   0.56980   0.82430   1.000
    H5B     H    0.23350   0.82430   0.43020   1.000
    H5B     H    0.76650   0.17570   0.43020   1.000
    H5B     H    0.23350   0.17570   0.56980   1.000
    H5B     H    0.76650   0.82430   0.56980   1.000
    H5B     H    0.82430   0.93020   0.73350   1.000
    H5B     H    0.17570   0.93020   0.26650   1.000
    H5B     H    0.17570   0.06980   0.73350   1.000
    H5B     H    0.82430   0.06980   0.26650   1.000
    H5B     H    0.93020   0.23350   0.32430   1.000
    H5B     H    0.93020   0.76650   0.67570   1.000
    H5B     H    0.06980   0.23350   0.67570   1.000
    H5B     H    0.06980   0.76650   0.32430   1.000
    H6A     H    0.22040   0.78590   0.84840   1.000
    H6A     H    0.22040   0.21410   0.15160   1.000
    H6A     H    0.77960   0.78590   0.15160   1.000
    H6A     H    0.84840   0.77960   0.21410   1.000
    H6A     H    0.84840   0.22040   0.78590   1.000
    H6A     H    0.15160   0.22040   0.21410   1.000
    H6A     H    0.15160   0.77960   0.78590   1.000
    H6A     H    0.21410   0.84840   0.77960   1.000
    H6A     H    0.78590   0.84840   0.22040   1.000
    H6A     H    0.21410   0.15160   0.22040   1.000
    H6A     H    0.78590   0.15160   0.77960   1.000
    H6A     H    0.71410   0.27960   0.34840   1.000
    H6A     H    0.28590   0.72040   0.34840   1.000
    H6A     H    0.71410   0.72040   0.65160   1.000
    H6A     H    0.28590   0.27960   0.65160   1.000
    H6A     H    0.27960   0.34840   0.71410   1.000
    H6A     H    0.72040   0.34840   0.28590   1.000
    H6A     H    0.72040   0.65160   0.71410   1.000
    H6A     H    0.27960   0.65160   0.28590   1.000
    H6A     H    0.34840   0.71410   0.27960   1.000
    H6A     H    0.34840   0.28590   0.72040   1.000
    H6A     H    0.65160   0.71410   0.72040   1.000
    H6A     H    0.65160   0.28590   0.27960   1.000
    H6A     H    0.77960   0.71410   0.34840   1.000
    H6A     H    0.22040   0.28590   0.34840   1.000
    H6A     H    0.22040   0.71410   0.65160   1.000
    H6A     H    0.77960   0.28590   0.65160   1.000
    H6A     H    0.84840   0.27960   0.71410   1.000
    H6A     H    0.84840   0.72040   0.28590   1.000
    H6A     H    0.15160   0.72040   0.71410   1.000
    H6A     H    0.15160   0.27960   0.28590   1.000
    H6A     H    0.21410   0.34840   0.27960   1.000
    H6A     H    0.78590   0.34840   0.72040   1.000
    H6A     H    0.21410   0.65160   0.72040   1.000
    H6A     H    0.78590   0.65160   0.27960   1.000
    H6A     H    0.71410   0.77960   0.84840   1.000
    H6A     H    0.28590   0.22040   0.84840   1.000
    H6A     H    0.71410   0.22040   0.15160   1.000
    H6A     H    0.28590   0.77960   0.15160   1.000
    H6A     H    0.27960   0.84840   0.21410   1.000
    H6A     H    0.72040   0.84840   0.78590   1.000
    H6A     H    0.72040   0.15160   0.21410   1.000
    H6A     H    0.27960   0.15160   0.78590   1.000
    H6A     H    0.34840   0.21410   0.77960   1.000
    H6A     H    0.34840   0.78590   0.22040   1.000
    H6A     H    0.65160   0.21410   0.22040   1.000
    H6A     H    0.65160   0.78590   0.77960   1.000
    H6A     H    0.27960   0.21410   0.34840   1.000
    H6A     H    0.72040   0.78590   0.34840   1.000
    H6A     H    0.72040   0.21410   0.65160   1.000
    H6A     H    0.27960   0.78590   0.65160   1.000
    H6A     H    0.34840   0.77960   0.71410   1.000
    H6A     H    0.34840   0.22040   0.28590   1.000
    H6A     H    0.65160   0.22040   0.71410   1.000
    H6A     H    0.65160   0.77960   0.28590   1.000
    H6A     H    0.71410   0.84840   0.27960   1.000
    H6A     H    0.28590   0.84840   0.72040   1.000
    H6A     H    0.71410   0.15160   0.72040   1.000
    H6A     H    0.28590   0.15160   0.27960   1.000
    H6A     H    0.21410   0.27960   0.84840   1.000
    H6A     H    0.78590   0.72040   0.84840   1.000
    H6A     H    0.21410   0.72040   0.15160   1.000
    H6A     H    0.78590   0.27960   0.15160   1.000
    H6A     H    0.77960   0.34840   0.21410   1.000
    H6A     H    0.22040   0.34840   0.78590   1.000
    H6A     H    0.22040   0.65160   0.21410   1.000
    H6A     H    0.77960   0.65160   0.78590   1.000
    H6A     H    0.84840   0.71410   0.77960   1.000
    H6A     H    0.84840   0.28590   0.22040   1.000
    H6A     H    0.15160   0.71410   0.22040   1.000
    H6A     H    0.15160   0.28590   0.77960   1.000
    H6A     H    0.27960   0.71410   0.84840   1.000
    H6A     H    0.72040   0.28590   0.84840   1.000
    H6A     H    0.72040   0.71410   0.15160   1.000
    H6A     H    0.27960   0.28590   0.15160   1.000
    H6A     H    0.34840   0.27960   0.21410   1.000
    H6A     H    0.34840   0.72040   0.78590   1.000
    H6A     H    0.65160   0.72040   0.21410   1.000
    H6A     H    0.65160   0.27960   0.78590   1.000
    H6A     H    0.71410   0.34840   0.77960   1.000
    H6A     H    0.28590   0.34840   0.22040   1.000
    H6A     H    0.71410   0.65160   0.22040   1.000
    H6A     H    0.28590   0.65160   0.77960   1.000
    H6A     H    0.21410   0.77960   0.34840   1.000
    H6A     H    0.78590   0.22040   0.34840   1.000
    H6A     H    0.21410   0.22040   0.65160   1.000
    H6A     H    0.78590   0.77960   0.65160   1.000
    H6A     H    0.77960   0.84840   0.71410   1.000
    H6A     H    0.22040   0.84840   0.28590   1.000
    H6A     H    0.22040   0.15160   0.71410   1.000
    H6A     H    0.77960   0.15160   0.28590   1.000
    H6A     H    0.84840   0.21410   0.27960   1.000
    H6A     H    0.84840   0.78590   0.72040   1.000
    H6A     H    0.15160   0.21410   0.72040   1.000
    H6A     H    0.15160   0.78590   0.27960   1.000
    H6B     H    0.27270   0.80180   0.88040   1.000
    H6B     H    0.27270   0.19820   0.11960   1.000
    H6B     H    0.72730   0.80180   0.11960   1.000
    H6B     H    0.88040   0.72730   0.19820   1.000
    H6B     H    0.88040   0.27270   0.80180   1.000
    H6B     H    0.11960   0.27270   0.19820   1.000
    H6B     H    0.11960   0.72730   0.80180   1.000
    H6B     H    0.19820   0.88040   0.72730   1.000
    H6B     H    0.80180   0.88040   0.27270   1.000
    H6B     H    0.19820   0.11960   0.27270   1.000
    H6B     H    0.80180   0.11960   0.72730   1.000
    H6B     H    0.69820   0.22730   0.38040   1.000
    H6B     H    0.30180   0.77270   0.38040   1.000
    H6B     H    0.69820   0.77270   0.61960   1.000
    H6B     H    0.30180   0.22730   0.61960   1.000
    H6B     H    0.22730   0.38040   0.69820   1.000
    H6B     H    0.77270   0.38040   0.30180   1.000
    H6B     H    0.77270   0.61960   0.69820   1.000
    H6B     H    0.22730   0.61960   0.30180   1.000
    H6B     H    0.38040   0.69820   0.22730   1.000
    H6B     H    0.38040   0.30180   0.77270   1.000
    H6B     H    0.61960   0.69820   0.77270   1.000
    H6B     H    0.61960   0.30180   0.22730   1.000
    H6B     H    0.72730   0.69820   0.38040   1.000
    H6B     H    0.27270   0.30180   0.38040   1.000
    H6B     H    0.27270   0.69820   0.61960   1.000
    H6B     H    0.72730   0.30180   0.61960   1.000
    H6B     H    0.88040   0.22730   0.69820   1.000
    H6B     H    0.88040   0.77270   0.30180   1.000
    H6B     H    0.11960   0.77270   0.69820   1.000
    H6B     H    0.11960   0.22730   0.30180   1.000
    H6B     H    0.19820   0.38040   0.22730   1.000
    H6B     H    0.80180   0.38040   0.77270   1.000
    H6B     H    0.19820   0.61960   0.77270   1.000
    H6B     H    0.80180   0.61960   0.22730   1.000
    H6B     H    0.69820   0.72730   0.88040   1.000
    H6B     H    0.30180   0.27270   0.88040   1.000
    H6B     H    0.69820   0.27270   0.11960   1.000
    H6B     H    0.30180   0.72730   0.11960   1.000
    H6B     H    0.22730   0.88040   0.19820   1.000
    H6B     H    0.77270   0.88040   0.80180   1.000
    H6B     H    0.77270   0.11960   0.19820   1.000
    H6B     H    0.22730   0.11960   0.80180   1.000
    H6B     H    0.38040   0.19820   0.72730   1.000
    H6B     H    0.38040   0.80180   0.27270   1.000
    H6B     H    0.61960   0.19820   0.27270   1.000
    H6B     H    0.61960   0.80180   0.72730   1.000
    H6B     H    0.22730   0.19820   0.38040   1.000
    H6B     H    0.77270   0.80180   0.38040   1.000
    H6B     H    0.77270   0.19820   0.61960   1.000
    H6B     H    0.22730   0.80180   0.61960   1.000
    H6B     H    0.38040   0.72730   0.69820   1.000
    H6B     H    0.38040   0.27270   0.30180   1.000
    H6B     H    0.61960   0.27270   0.69820   1.000
    H6B     H    0.61960   0.72730   0.30180   1.000
    H6B     H    0.69820   0.88040   0.22730   1.000
    H6B     H    0.30180   0.88040   0.77270   1.000
    H6B     H    0.69820   0.11960   0.77270   1.000
    H6B     H    0.30180   0.11960   0.22730   1.000
    H6B     H    0.19820   0.22730   0.88040   1.000
    H6B     H    0.80180   0.77270   0.88040   1.000
    H6B     H    0.19820   0.77270   0.11960   1.000
    H6B     H    0.80180   0.22730   0.11960   1.000
    H6B     H    0.72730   0.38040   0.19820   1.000
    H6B     H    0.27270   0.38040   0.80180   1.000
    H6B     H    0.27270   0.61960   0.19820   1.000
    H6B     H    0.72730   0.61960   0.80180   1.000
    H6B     H    0.88040   0.69820   0.72730   1.000
    H6B     H    0.88040   0.30180   0.27270   1.000
    H6B     H    0.11960   0.69820   0.27270   1.000
    H6B     H    0.11960   0.30180   0.72730   1.000
    H6B     H    0.22730   0.69820   0.88040   1.000
    H6B     H    0.77270   0.30180   0.88040   1.000
    H6B     H    0.77270   0.69820   0.11960   1.000
    H6B     H    0.22730   0.30180   0.11960   1.000
    H6B     H    0.38040   0.22730   0.19820   1.000
    H6B     H    0.38040   0.77270   0.80180   1.000
    H6B     H    0.61960   0.77270   0.19820   1.000
    H6B     H    0.61960   0.22730   0.80180   1.000
    H6B     H    0.69820   0.38040   0.72730   1.000
    H6B     H    0.30180   0.38040   0.27270   1.000
    H6B     H    0.69820   0.61960   0.27270   1.000
    H6B     H    0.30180   0.61960   0.72730   1.000
    H6B     H    0.19820   0.72730   0.38040   1.000
    H6B     H    0.80180   0.27270   0.38040   1.000
    H6B     H    0.19820   0.27270   0.61960   1.000
    H6B     H    0.80180   0.72730   0.61960   1.000
    H6B     H    0.72730   0.88040   0.69820   1.000
    H6B     H    0.27270   0.88040   0.30180   1.000
    H6B     H    0.27270   0.11960   0.69820   1.000
    H6B     H    0.72730   0.11960   0.30180   1.000
    H6B     H    0.88040   0.19820   0.22730   1.000
    H6B     H    0.88040   0.80180   0.77270   1.000
    H6B     H    0.11960   0.19820   0.77270   1.000
    H6B     H    0.11960   0.80180   0.22730   1.000
