data_CC3_PM
_symmetry_space_group_name_H-M    'P1'
_cell_length_a    24.926100
_cell_length_b    24.926100
_cell_length_c    24.926100
_cell_angle_alpha    90.000000
_cell_angle_beta     90.000000
_cell_angle_gamma    90.000000
_symmetry_Int_Tables_number 1

loop_
_symmetry_equiv_pos_as_xyz
'x,y,z'

loop_
_atom_site_label
_atom_site_type_symbol
_atom_site_fract_x
_atom_site_fract_y
_atom_site_fract_z
N1    N    0.536000    0.546200    0.276700
N2    N    0.464000    0.953800    0.776700
N3    N    0.964000    0.046200    0.723300
N4    N    0.036000    0.453800    0.223300
N5    N    0.276700    0.536000    0.546200
N6    N    0.776700    0.464000    0.953800
N7    N    0.723300    0.964000    0.046200
N8    N    0.223300    0.036000    0.453800
N9    N    0.546200    0.276700    0.536000
N10    N    0.953800    0.776700    0.464000
N11    N    0.046200    0.723300    0.964000
N12    N    0.453800    0.223300    0.036000
N13    N    0.296200    0.786000    0.473300
N14    N    0.703800    0.714000    0.973300
N15    N    0.796200    0.214000    0.026700
N16    N    0.203800    0.286000    0.526700
N17    N    0.286000    0.526700    0.203800
N18    N    0.214000    0.026700    0.796200
N19    N    0.714000    0.973300    0.703800
N20    N    0.786000    0.473300    0.296200
N21    N    0.026700    0.796200    0.214000
N22    N    0.526700    0.203800    0.286000
N23    N    0.473300    0.296200    0.786000
N24    N    0.973300    0.703800    0.714000
N25    N    0.536000    0.046200    0.776700
N26    N    0.464000    0.453800    0.276700
N27    N    0.964000    0.546200    0.223300
N28    N    0.036000    0.953800    0.723300
N29    N    0.276700    0.036000    0.046200
N30    N    0.776700    0.964000    0.453800
N31    N    0.723300    0.464000    0.546200
N32    N    0.223300    0.536000    0.953800
N33    N    0.546200    0.776700    0.036000
N34    N    0.953800    0.276700    0.964000
N35    N    0.046200    0.223300    0.464000
N36    N    0.453800    0.723300    0.536000
N37    N    0.296200    0.286000    0.973300
N38    N    0.703800    0.214000    0.473300
N39    N    0.796200    0.714000    0.526700
N40    N    0.203800    0.786000    0.026700
N41    N    0.286000    0.026700    0.703800
N42    N    0.214000    0.526700    0.296200
N43    N    0.714000    0.473300    0.203800
N44    N    0.786000    0.973300    0.796200
N45    N    0.026700    0.296200    0.714000
N46    N    0.526700    0.703800    0.786000
N47    N    0.473300    0.796200    0.286000
N48    N    0.973300    0.203800    0.214000
N49    N    0.036000    0.546200    0.776700
N50    N    0.964000    0.953800    0.276700
N51    N    0.464000    0.046200    0.223300
N52    N    0.536000    0.453800    0.723300
N53    N    0.776700    0.536000    0.046200
N54    N    0.276700    0.464000    0.453800
N55    N    0.223300    0.964000    0.546200
N56    N    0.723300    0.036000    0.953800
N57    N    0.046200    0.276700    0.036000
N58    N    0.453800    0.776700    0.964000
N59    N    0.546200    0.723300    0.464000
N60    N    0.953800    0.223300    0.536000
N61    N    0.796200    0.786000    0.973300
N62    N    0.203800    0.714000    0.473300
N63    N    0.296200    0.214000    0.526700
N64    N    0.703800    0.286000    0.026700
N65    N    0.786000    0.526700    0.703800
N66    N    0.714000    0.026700    0.296200
N67    N    0.214000    0.973300    0.203800
N68    N    0.286000    0.473300    0.796200
N69    N    0.526700    0.796200    0.714000
N70    N    0.026700    0.203800    0.786000
N71    N    0.973300    0.296200    0.286000
N72    N    0.473300    0.703800    0.214000
N73    N    0.036000    0.046200    0.276700
N74    N    0.964000    0.453800    0.776700
N75    N    0.464000    0.546200    0.723300
N76    N    0.536000    0.953800    0.223300
N77    N    0.776700    0.036000    0.546200
N78    N    0.276700    0.964000    0.953800
N79    N    0.223300    0.464000    0.046200
N80    N    0.723300    0.536000    0.453800
N81    N    0.046200    0.776700    0.536000
N82    N    0.453800    0.276700    0.464000
N83    N    0.546200    0.223300    0.964000
N84    N    0.953800    0.723300    0.036000
N85    N    0.796200    0.286000    0.473300
N86    N    0.203800    0.214000    0.973300
N87    N    0.296200    0.714000    0.026700
N88    N    0.703800    0.786000    0.526700
N89    N    0.786000    0.026700    0.203800
N90    N    0.714000    0.526700    0.796200
N91    N    0.214000    0.473300    0.703800
N92    N    0.286000    0.973300    0.296200
N93    N    0.526700    0.296200    0.214000
N94    N    0.026700    0.703800    0.286000
N95    N    0.973300    0.796200    0.786000
N96    N    0.473300    0.203800    0.714000
C1    C    0.556700    0.614700    0.366900
C2    C    0.443300    0.885300    0.866900
C3    C    0.943300    0.114700    0.633100
C4    C    0.056700    0.385300    0.133100
C5    C    0.366900    0.556700    0.614700
C6    C    0.866900    0.443300    0.885300
C7    C    0.633100    0.943300    0.114700
C8    C    0.133100    0.056700    0.385300
C9    C    0.614700    0.366900    0.556700
C10    C    0.885300    0.866900    0.443300
C11    C    0.114700    0.633100    0.943300
C12    C    0.385300    0.133100    0.056700
C13    C    0.364700    0.806700    0.383100
C14    C    0.635300    0.693300    0.883100
C15    C    0.864700    0.193300    0.116900
C16    C    0.135300    0.306700    0.616900
C17    C    0.306700    0.616900    0.135300
C18    C    0.193300    0.116900    0.864700
C19    C    0.693300    0.883100    0.635300
C20    C    0.806700    0.383100    0.364700
C21    C    0.116900    0.864700    0.193300
C22    C    0.616900    0.135300    0.306700
C23    C    0.383100    0.364700    0.806700
C24    C    0.883100    0.635300    0.693300
C25    C    0.556700    0.114700    0.866900
C26    C    0.443300    0.385300    0.366900
C27    C    0.943300    0.614700    0.133100
C28    C    0.056700    0.885300    0.633100
C29    C    0.366900    0.056700    0.114700
C30    C    0.866900    0.943300    0.385300
C31    C    0.633100    0.443300    0.614700
C32    C    0.133100    0.556700    0.885300
C33    C    0.614700    0.866900    0.056700
C34    C    0.885300    0.366900    0.943300
C35    C    0.114700    0.133100    0.443300
C36    C    0.385300    0.633100    0.556700
C37    C    0.364700    0.306700    0.883100
C38    C    0.635300    0.193300    0.383100
C39    C    0.864700    0.693300    0.616900
C40    C    0.135300    0.806700    0.116900
C41    C    0.306700    0.116900    0.635300
C42    C    0.193300    0.616900    0.364700
C43    C    0.693300    0.383100    0.135300
C44    C    0.806700    0.883100    0.864700
C45    C    0.116900    0.364700    0.693300
C46    C    0.616900    0.635300    0.806700
C47    C    0.383100    0.864700    0.306700
C48    C    0.883100    0.135300    0.193300
C49    C    0.056700    0.614700    0.866900
C50    C    0.943300    0.885300    0.366900
C51    C    0.443300    0.114700    0.133100
C52    C    0.556700    0.385300    0.633100
C53    C    0.866900    0.556700    0.114700
C54    C    0.366900    0.443300    0.385300
C55    C    0.133100    0.943300    0.614700
C56    C    0.633100    0.056700    0.885300
C57    C    0.114700    0.366900    0.056700
C58    C    0.385300    0.866900    0.943300
C59    C    0.614700    0.633100    0.443300
C60    C    0.885300    0.133100    0.556700
C61    C    0.864700    0.806700    0.883100
C62    C    0.135300    0.693300    0.383100
C63    C    0.364700    0.193300    0.616900
C64    C    0.635300    0.306700    0.116900
C65    C    0.806700    0.616900    0.635300
C66    C    0.693300    0.116900    0.364700
C67    C    0.193300    0.883100    0.135300
C68    C    0.306700    0.383100    0.864700
C69    C    0.616900    0.864700    0.693300
C70    C    0.116900    0.135300    0.806700
C71    C    0.883100    0.364700    0.306700
C72    C    0.383100    0.635300    0.193300
C73    C    0.056700    0.114700    0.366900
C74    C    0.943300    0.385300    0.866900
C75    C    0.443300    0.614700    0.633100
C76    C    0.556700    0.885300    0.133100
C77    C    0.866900    0.056700    0.614700
C78    C    0.366900    0.943300    0.885300
C79    C    0.133100    0.443300    0.114700
C80    C    0.633100    0.556700    0.385300
C81    C    0.114700    0.866900    0.556700
C82    C    0.385300    0.366900    0.443300
C83    C    0.614700    0.133100    0.943300
C84    C    0.885300    0.633100    0.056700
C85    C    0.864700    0.306700    0.383100
C86    C    0.135300    0.193300    0.883100
C87    C    0.364700    0.693300    0.116900
C88    C    0.635300    0.806700    0.616900
C89    C    0.806700    0.116900    0.135300
C90    C    0.693300    0.616900    0.864700
C91    C    0.193300    0.383100    0.635300
C92    C    0.306700    0.883100    0.364700
C93    C    0.616900    0.364700    0.193300
C94    C    0.116900    0.635300    0.306700
C95    C    0.883100    0.864700    0.806700
C96    C    0.383100    0.135300    0.693300
H1    H    0.526500    0.623200    0.346700
H2    H    0.473500    0.876800    0.846700
H3    H    0.973500    0.123200    0.653300
H4    H    0.026500    0.376800    0.153300
H5    H    0.346700    0.526500    0.623200
H6    H    0.846700    0.473500    0.876800
H7    H    0.653300    0.973500    0.123200
H8    H    0.153300    0.026500    0.376800
H9    H    0.623200    0.346700    0.526500
H10    H    0.876800    0.846700    0.473500
H11    H    0.123200    0.653300    0.973500
H12    H    0.376800    0.153300    0.026500
H13    H    0.373200    0.776500    0.403300
H14    H    0.626800    0.723500    0.903300
H15    H    0.873200    0.223500    0.096700
H16    H    0.126800    0.276500    0.596700
H17    H    0.276500    0.596700    0.126800
H18    H    0.223500    0.096700    0.873200
H19    H    0.723500    0.903300    0.626800
H20    H    0.776500    0.403300    0.373200
H21    H    0.096700    0.873200    0.223500
H22    H    0.596700    0.126800    0.276500
H23    H    0.403300    0.373200    0.776500
H24    H    0.903300    0.626800    0.723500
H25    H    0.526500    0.123200    0.846700
H26    H    0.473500    0.376800    0.346700
H27    H    0.973500    0.623200    0.153300
H28    H    0.026500    0.876800    0.653300
H29    H    0.346700    0.026500    0.123200
H30    H    0.846700    0.973500    0.376800
H31    H    0.653300    0.473500    0.623200
H32    H    0.153300    0.526500    0.876800
H33    H    0.623200    0.846700    0.026500
H34    H    0.876800    0.346700    0.973500
H35    H    0.123200    0.153300    0.473500
H36    H    0.376800    0.653300    0.526500
H37    H    0.373200    0.276500    0.903300
H38    H    0.626800    0.223500    0.403300
H39    H    0.873200    0.723500    0.596700
H40    H    0.126800    0.776500    0.096700
H41    H    0.276500    0.096700    0.626800
H42    H    0.223500    0.596700    0.373200
H43    H    0.723500    0.403300    0.126800
H44    H    0.776500    0.903300    0.873200
H45    H    0.096700    0.373200    0.723500
H46    H    0.596700    0.626800    0.776500
H47    H    0.403300    0.873200    0.276500
H48    H    0.903300    0.126800    0.223500
H49    H    0.026500    0.623200    0.846700
H50    H    0.973500    0.876800    0.346700
H51    H    0.473500    0.123200    0.153300
H52    H    0.526500    0.376800    0.653300
H53    H    0.846700    0.526500    0.123200
H54    H    0.346700    0.473500    0.376800
H55    H    0.153300    0.973500    0.623200
H56    H    0.653300    0.026500    0.876800
H57    H    0.123200    0.346700    0.026500
H58    H    0.376800    0.846700    0.973500
H59    H    0.623200    0.653300    0.473500
H60    H    0.876800    0.153300    0.526500
H61    H    0.873200    0.776500    0.903300
H62    H    0.126800    0.723500    0.403300
H63    H    0.373200    0.223500    0.596700
H64    H    0.626800    0.276500    0.096700
H65    H    0.776500    0.596700    0.626800
H66    H    0.723500    0.096700    0.373200
H67    H    0.223500    0.903300    0.126800
H68    H    0.276500    0.403300    0.873200
H69    H    0.596700    0.873200    0.723500
H70    H    0.096700    0.126800    0.776500
H71    H    0.903300    0.373200    0.276500
H72    H    0.403300    0.626800    0.223500
H73    H    0.026500    0.123200    0.346700
H74    H    0.973500    0.376800    0.846700
H75    H    0.473500    0.623200    0.653300
H76    H    0.526500    0.876800    0.153300
H77    H    0.846700    0.026500    0.623200
H78    H    0.346700    0.973500    0.876800
H79    H    0.153300    0.473500    0.123200
H80    H    0.653300    0.526500    0.376800
H81    H    0.123200    0.846700    0.526500
H82    H    0.376800    0.346700    0.473500
H83    H    0.623200    0.153300    0.973500
H84    H    0.876800    0.653300    0.026500
H85    H    0.873200    0.276500    0.403300
H86    H    0.126800    0.223500    0.903300
H87    H    0.373200    0.723500    0.096700
H88    H    0.626800    0.776500    0.596700
H89    H    0.776500    0.096700    0.126800
H90    H    0.723500    0.596700    0.873200
H91    H    0.223500    0.403300    0.626800
H92    H    0.276500    0.903300    0.373200
H93    H    0.596700    0.373200    0.223500
H94    H    0.096700    0.626800    0.276500
H95    H    0.903300    0.873200    0.776500
H96    H    0.403300    0.126800    0.723500
C97    C    0.588000    0.570900    0.353200
C98    C    0.412000    0.929100    0.853200
C99    C    0.912000    0.070900    0.646800
C100    C    0.088000    0.429100    0.146800
C101    C    0.353200    0.588000    0.570900
C102    C    0.853200    0.412000    0.929100
C103    C    0.646800    0.912000    0.070900
C104    C    0.146800    0.088000    0.429100
C105    C    0.570900    0.353200    0.588000
C106    C    0.929100    0.853200    0.412000
C107    C    0.070900    0.646800    0.912000
C108    C    0.429100    0.146800    0.088000
C109    C    0.320900    0.838000    0.396800
C110    C    0.679100    0.662000    0.896800
C111    C    0.820900    0.162000    0.103200
C112    C    0.179100    0.338000    0.603200
C113    C    0.338000    0.603200    0.179100
C114    C    0.162000    0.103200    0.820900
C115    C    0.662000    0.896800    0.679100
C116    C    0.838000    0.396800    0.320900
C117    C    0.103200    0.820900    0.162000
C118    C    0.603200    0.179100    0.338000
C119    C    0.396800    0.320900    0.838000
C120    C    0.896800    0.679100    0.662000
C121    C    0.588000    0.070900    0.853200
C122    C    0.412000    0.429100    0.353200
C123    C    0.912000    0.570900    0.146800
C124    C    0.088000    0.929100    0.646800
C125    C    0.353200    0.088000    0.070900
C126    C    0.853200    0.912000    0.429100
C127    C    0.646800    0.412000    0.570900
C128    C    0.146800    0.588000    0.929100
C129    C    0.570900    0.853200    0.088000
C130    C    0.929100    0.353200    0.912000
C131    C    0.070900    0.146800    0.412000
C132    C    0.429100    0.646800    0.588000
C133    C    0.320900    0.338000    0.896800
C134    C    0.679100    0.162000    0.396800
C135    C    0.820900    0.662000    0.603200
C136    C    0.179100    0.838000    0.103200
C137    C    0.338000    0.103200    0.679100
C138    C    0.162000    0.603200    0.320900
C139    C    0.662000    0.396800    0.179100
C140    C    0.838000    0.896800    0.820900
C141    C    0.103200    0.320900    0.662000
C142    C    0.603200    0.679100    0.838000
C143    C    0.396800    0.820900    0.338000
C144    C    0.896800    0.179100    0.162000
C145    C    0.088000    0.570900    0.853200
C146    C    0.912000    0.929100    0.353200
C147    C    0.412000    0.070900    0.146800
C148    C    0.588000    0.429100    0.646800
C149    C    0.853200    0.588000    0.070900
C150    C    0.353200    0.412000    0.429100
C151    C    0.146800    0.912000    0.570900
C152    C    0.646800    0.088000    0.929100
C153    C    0.070900    0.353200    0.088000
C154    C    0.429100    0.853200    0.912000
C155    C    0.570900    0.646800    0.412000
C156    C    0.929100    0.146800    0.588000
C157    C    0.820900    0.838000    0.896800
C158    C    0.179100    0.662000    0.396800
C159    C    0.320900    0.162000    0.603200
C160    C    0.679100    0.338000    0.103200
C161    C    0.838000    0.603200    0.679100
C162    C    0.662000    0.103200    0.320900
C163    C    0.162000    0.896800    0.179100
C164    C    0.338000    0.396800    0.820900
C165    C    0.603200    0.820900    0.662000
C166    C    0.103200    0.179100    0.838000
C167    C    0.896800    0.320900    0.338000
C168    C    0.396800    0.679100    0.162000
C169    C    0.088000    0.070900    0.353200
C170    C    0.912000    0.429100    0.853200
C171    C    0.412000    0.570900    0.646800
C172    C    0.588000    0.929100    0.146800
C173    C    0.853200    0.088000    0.570900
C174    C    0.353200    0.912000    0.929100
C175    C    0.146800    0.412000    0.070900
C176    C    0.646800    0.588000    0.429100
C177    C    0.070900    0.853200    0.588000
C178    C    0.429100    0.353200    0.412000
C179    C    0.570900    0.146800    0.912000
C180    C    0.929100    0.646800    0.088000
C181    C    0.820900    0.338000    0.396800
C182    C    0.179100    0.162000    0.896800
C183    C    0.320900    0.662000    0.103200
C184    C    0.679100    0.838000    0.603200
C185    C    0.838000    0.103200    0.179100
C186    C    0.662000    0.603200    0.820900
C187    C    0.162000    0.396800    0.679100
C188    C    0.338000    0.896800    0.320900
C189    C    0.603200    0.320900    0.162000
C190    C    0.103200    0.679100    0.338000
C191    C    0.896800    0.820900    0.838000
C192    C    0.396800    0.179100    0.662000
C193    C    0.574900    0.536700    0.307200
C194    C    0.425100    0.963300    0.807200
C195    C    0.925100    0.036700    0.692800
C196    C    0.074900    0.463300    0.192800
C197    C    0.307200    0.574900    0.536700
C198    C    0.807200    0.425100    0.963300
C199    C    0.692800    0.925100    0.036700
C200    C    0.192800    0.074900    0.463300
C201    C    0.536700    0.307200    0.574900
C202    C    0.963300    0.807200    0.425100
C203    C    0.036700    0.692800    0.925100
C204    C    0.463300    0.192800    0.074900
C205    C    0.286700    0.824900    0.442800
C206    C    0.713300    0.675100    0.942800
C207    C    0.786700    0.175100    0.057200
C208    C    0.213300    0.324900    0.557200
C209    C    0.324900    0.557200    0.213300
C210    C    0.175100    0.057200    0.786700
C211    C    0.675100    0.942800    0.713300
C212    C    0.824900    0.442800    0.286700
C213    C    0.057200    0.786700    0.175100
C214    C    0.557200    0.213300    0.324900
C215    C    0.442800    0.286700    0.824900
C216    C    0.942800    0.713300    0.675100
C217    C    0.574900    0.036700    0.807200
C218    C    0.425100    0.463300    0.307200
C219    C    0.925100    0.536700    0.192800
C220    C    0.074900    0.963300    0.692800
C221    C    0.307200    0.074900    0.036700
C222    C    0.807200    0.925100    0.463300
C223    C    0.692800    0.425100    0.536700
C224    C    0.192800    0.574900    0.963300
C225    C    0.536700    0.807200    0.074900
C226    C    0.963300    0.307200    0.925100
C227    C    0.036700    0.192800    0.425100
C228    C    0.463300    0.692800    0.574900
C229    C    0.286700    0.324900    0.942800
C230    C    0.713300    0.175100    0.442800
C231    C    0.786700    0.675100    0.557200
C232    C    0.213300    0.824900    0.057200
C233    C    0.324900    0.057200    0.713300
C234    C    0.175100    0.557200    0.286700
C235    C    0.675100    0.442800    0.213300
C236    C    0.824900    0.942800    0.786700
C237    C    0.057200    0.286700    0.675100
C238    C    0.557200    0.713300    0.824900
C239    C    0.442800    0.786700    0.324900
C240    C    0.942800    0.213300    0.175100
C241    C    0.074900    0.536700    0.807200
C242    C    0.925100    0.963300    0.307200
C243    C    0.425100    0.036700    0.192800
C244    C    0.574900    0.463300    0.692800
C245    C    0.807200    0.574900    0.036700
C246    C    0.307200    0.425100    0.463300
C247    C    0.192800    0.925100    0.536700
C248    C    0.692800    0.074900    0.963300
C249    C    0.036700    0.307200    0.074900
C250    C    0.463300    0.807200    0.925100
C251    C    0.536700    0.692800    0.425100
C252    C    0.963300    0.192800    0.574900
C253    C    0.786700    0.824900    0.942800
C254    C    0.213300    0.675100    0.442800
C255    C    0.286700    0.175100    0.557200
C256    C    0.713300    0.324900    0.057200
C257    C    0.824900    0.557200    0.713300
C258    C    0.675100    0.057200    0.286700
C259    C    0.175100    0.942800    0.213300
C260    C    0.324900    0.442800    0.786700
C261    C    0.557200    0.786700    0.675100
C262    C    0.057200    0.213300    0.824900
C263    C    0.942800    0.286700    0.324900
C264    C    0.442800    0.713300    0.175100
C265    C    0.074900    0.036700    0.307200
C266    C    0.925100    0.463300    0.807200
C267    C    0.425100    0.536700    0.692800
C268    C    0.574900    0.963300    0.192800
C269    C    0.807200    0.074900    0.536700
C270    C    0.307200    0.925100    0.963300
C271    C    0.192800    0.425100    0.036700
C272    C    0.692800    0.574900    0.463300
C273    C    0.036700    0.807200    0.574900
C274    C    0.463300    0.307200    0.425100
C275    C    0.536700    0.192800    0.925100
C276    C    0.963300    0.692800    0.074900
C277    C    0.786700    0.324900    0.442800
C278    C    0.213300    0.175100    0.942800
C279    C    0.286700    0.675100    0.057200
C280    C    0.713300    0.824900    0.557200
C281    C    0.824900    0.057200    0.213300
C282    C    0.675100    0.557200    0.786700
C283    C    0.175100    0.442800    0.713300
C284    C    0.324900    0.942800    0.286700
C285    C    0.557200    0.286700    0.175100
C286    C    0.057200    0.713300    0.324900
C287    C    0.942800    0.786700    0.824900
C288    C    0.442800    0.213300    0.675100
H97    H    0.596300    0.506900    0.300200
H98    H    0.403700    0.993100    0.800200
H99    H    0.903700    0.006900    0.699800
H100    H    0.096300    0.493100    0.199800
H101    H    0.300200    0.596300    0.506900
H102    H    0.800200    0.403700    0.993100
H103    H    0.699800    0.903700    0.006900
H104    H    0.199800    0.096300    0.493100
H105    H    0.506900    0.300200    0.596300
H106    H    0.993100    0.800200    0.403700
H107    H    0.006900    0.699800    0.903700
H108    H    0.493100    0.199800    0.096300
H109    H    0.256900    0.846300    0.449800
H110    H    0.743100    0.653700    0.949800
H111    H    0.756900    0.153700    0.050200
H112    H    0.243100    0.346300    0.550200
H113    H    0.346300    0.550200    0.243100
H114    H    0.153700    0.050200    0.756900
H115    H    0.653700    0.949800    0.743100
H116    H    0.846300    0.449800    0.256900
H117    H    0.050200    0.756900    0.153700
H118    H    0.550200    0.243100    0.346300
H119    H    0.449800    0.256900    0.846300
H120    H    0.949800    0.743100    0.653700
H121    H    0.596300    0.006900    0.800200
H122    H    0.403700    0.493100    0.300200
H123    H    0.903700    0.506900    0.199800
H124    H    0.096300    0.993100    0.699800
H125    H    0.300200    0.096300    0.006900
H126    H    0.800200    0.903700    0.493100
H127    H    0.699800    0.403700    0.506900
H128    H    0.199800    0.596300    0.993100
H129    H    0.506900    0.800200    0.096300
H130    H    0.993100    0.300200    0.903700
H131    H    0.006900    0.199800    0.403700
H132    H    0.493100    0.699800    0.596300
H133    H    0.256900    0.346300    0.949800
H134    H    0.743100    0.153700    0.449800
H135    H    0.756900    0.653700    0.550200
H136    H    0.243100    0.846300    0.050200
H137    H    0.346300    0.050200    0.743100
H138    H    0.153700    0.550200    0.256900
H139    H    0.653700    0.449800    0.243100
H140    H    0.846300    0.949800    0.756900
H141    H    0.050200    0.256900    0.653700
H142    H    0.550200    0.743100    0.846300
H143    H    0.449800    0.756900    0.346300
H144    H    0.949800    0.243100    0.153700
H145    H    0.096300    0.506900    0.800200
H146    H    0.903700    0.993100    0.300200
H147    H    0.403700    0.006900    0.199800
H148    H    0.596300    0.493100    0.699800
H149    H    0.800200    0.596300    0.006900
H150    H    0.300200    0.403700    0.493100
H151    H    0.199800    0.903700    0.506900
H152    H    0.699800    0.096300    0.993100
H153    H    0.006900    0.300200    0.096300
H154    H    0.493100    0.800200    0.903700
H155    H    0.506900    0.699800    0.403700
H156    H    0.993100    0.199800    0.596300
H157    H    0.756900    0.846300    0.949800
H158    H    0.243100    0.653700    0.449800
H159    H    0.256900    0.153700    0.550200
H160    H    0.743100    0.346300    0.050200
H161    H    0.846300    0.550200    0.743100
H162    H    0.653700    0.050200    0.256900
H163    H    0.153700    0.949800    0.243100
H164    H    0.346300    0.449800    0.756900
H165    H    0.550200    0.756900    0.653700
H166    H    0.050200    0.243100    0.846300
H167    H    0.949800    0.256900    0.346300
H168    H    0.449800    0.743100    0.153700
H169    H    0.096300    0.006900    0.300200
H170    H    0.903700    0.493100    0.800200
H171    H    0.403700    0.506900    0.699800
H172    H    0.596300    0.993100    0.199800
H173    H    0.800200    0.096300    0.506900
H174    H    0.300200    0.903700    0.993100
H175    H    0.199800    0.403700    0.006900
H176    H    0.699800    0.596300    0.493100
H177    H    0.006900    0.800200    0.596300
H178    H    0.493100    0.300200    0.403700
H179    H    0.506900    0.199800    0.903700
H180    H    0.993100    0.699800    0.096300
H181    H    0.756900    0.346300    0.449800
H182    H    0.243100    0.153700    0.949800
H183    H    0.256900    0.653700    0.050200
H184    H    0.743100    0.846300    0.550200
H185    H    0.846300    0.050200    0.243100
H186    H    0.653700    0.550200    0.756900
H187    H    0.153700    0.449800    0.743100
H188    H    0.346300    0.949800    0.256900
H189    H    0.550200    0.256900    0.153700
H190    H    0.050200    0.743100    0.346300
H191    H    0.949800    0.756900    0.846300
H192    H    0.449800    0.243100    0.653700
C289    C    0.527600    0.511800    0.231200
C290    C    0.472400    0.988200    0.731200
C291    C    0.972400    0.011800    0.768800
C292    C    0.027600    0.488200    0.268800
C293    C    0.231200    0.527600    0.511800
C294    C    0.731200    0.472400    0.988200
C295    C    0.768800    0.972400    0.011800
C296    C    0.268800    0.027600    0.488200
C297    C    0.511800    0.231200    0.527600
C298    C    0.988200    0.731200    0.472400
C299    C    0.011800    0.768800    0.972400
C300    C    0.488200    0.268800    0.027600
C301    C    0.261800    0.777600    0.518800
C302    C    0.738200    0.722400    0.018800
C303    C    0.761800    0.222400    0.981200
C304    C    0.238200    0.277600    0.481200
C305    C    0.277600    0.481200    0.238200
C306    C    0.222400    0.981200    0.761800
C307    C    0.722400    0.018800    0.738200
C308    C    0.777600    0.518800    0.261800
C309    C    0.981200    0.761800    0.222400
C310    C    0.481200    0.238200    0.277600
C311    C    0.518800    0.261800    0.777600
C312    C    0.018800    0.738200    0.722400
C313    C    0.527600    0.011800    0.731200
C314    C    0.472400    0.488200    0.231200
C315    C    0.972400    0.511800    0.268800
C316    C    0.027600    0.988200    0.768800
C317    C    0.231200    0.027600    0.011800
C318    C    0.731200    0.972400    0.488200
C319    C    0.768800    0.472400    0.511800
C320    C    0.268800    0.527600    0.988200
C321    C    0.511800    0.731200    0.027600
C322    C    0.988200    0.231200    0.972400
C323    C    0.011800    0.268800    0.472400
C324    C    0.488200    0.768800    0.527600
C325    C    0.261800    0.277600    0.018800
C326    C    0.738200    0.222400    0.518800
C327    C    0.761800    0.722400    0.481200
C328    C    0.238200    0.777600    0.981200
C329    C    0.277600    0.981200    0.738200
C330    C    0.222400    0.481200    0.261800
C331    C    0.722400    0.518800    0.238200
C332    C    0.777600    0.018800    0.761800
C333    C    0.981200    0.261800    0.722400
C334    C    0.481200    0.738200    0.777600
C335    C    0.518800    0.761800    0.277600
C336    C    0.018800    0.238200    0.222400
C337    C    0.027600    0.511800    0.731200
C338    C    0.972400    0.988200    0.231200
C339    C    0.472400    0.011800    0.268800
C340    C    0.527600    0.488200    0.768800
C341    C    0.731200    0.527600    0.011800
C342    C    0.231200    0.472400    0.488200
C343    C    0.268800    0.972400    0.511800
C344    C    0.768800    0.027600    0.988200
C345    C    0.011800    0.231200    0.027600
C346    C    0.488200    0.731200    0.972400
C347    C    0.511800    0.768800    0.472400
C348    C    0.988200    0.268800    0.527600
C349    C    0.761800    0.777600    0.018800
C350    C    0.238200    0.722400    0.518800
C351    C    0.261800    0.222400    0.481200
C352    C    0.738200    0.277600    0.981200
C353    C    0.777600    0.481200    0.738200
C354    C    0.722400    0.981200    0.261800
C355    C    0.222400    0.018800    0.238200
C356    C    0.277600    0.518800    0.761800
C357    C    0.481200    0.761800    0.722400
C358    C    0.981200    0.238200    0.777600
C359    C    0.018800    0.261800    0.277600
C360    C    0.518800    0.738200    0.222400
C361    C    0.027600    0.011800    0.231200
C362    C    0.972400    0.488200    0.731200
C363    C    0.472400    0.511800    0.768800
C364    C    0.527600    0.988200    0.268800
C365    C    0.731200    0.027600    0.511800
C366    C    0.231200    0.972400    0.988200
C367    C    0.268800    0.472400    0.011800
C368    C    0.768800    0.527600    0.488200
C369    C    0.011800    0.731200    0.527600
C370    C    0.488200    0.231200    0.472400
C371    C    0.511800    0.268800    0.972400
C372    C    0.988200    0.768800    0.027600
C373    C    0.761800    0.277600    0.518800
C374    C    0.238200    0.222400    0.018800
C375    C    0.261800    0.722400    0.981200
C376    C    0.738200    0.777600    0.481200
C377    C    0.777600    0.981200    0.238200
C378    C    0.722400    0.481200    0.761800
C379    C    0.222400    0.518800    0.738200
C380    C    0.277600    0.018800    0.261800
C381    C    0.481200    0.261800    0.222400
C382    C    0.981200    0.738200    0.277600
C383    C    0.018800    0.761800    0.777600
C384    C    0.518800    0.238200    0.722400
H193    H    0.553700    0.482400    0.232900
H194    H    0.446300    0.017600    0.732900
H195    H    0.946300    0.982400    0.767100
H196    H    0.053700    0.517600    0.267100
H197    H    0.232900    0.553700    0.482400
H198    H    0.732900    0.446300    0.017600
H199    H    0.767100    0.946300    0.982400
H200    H    0.267100    0.053700    0.517600
H201    H    0.482400    0.232900    0.553700
H202    H    0.017600    0.732900    0.446300
H203    H    0.982400    0.767100    0.946300
H204    H    0.517600    0.267100    0.053700
H205    H    0.232400    0.803700    0.517100
H206    H    0.767600    0.696300    0.017100
H207    H    0.732400    0.196300    0.982900
H208    H    0.267600    0.303700    0.482900
H209    H    0.303700    0.482900    0.267600
H210    H    0.196300    0.982900    0.732400
H211    H    0.696300    0.017100    0.767600
H212    H    0.803700    0.517100    0.232400
H213    H    0.982900    0.732400    0.196300
H214    H    0.482900    0.267600    0.303700
H215    H    0.517100    0.232400    0.803700
H216    H    0.017100    0.767600    0.696300
H217    H    0.553700    0.982400    0.732900
H218    H    0.446300    0.517600    0.232900
H219    H    0.946300    0.482400    0.267100
H220    H    0.053700    0.017600    0.767100
H221    H    0.232900    0.053700    0.982400
H222    H    0.732900    0.946300    0.517600
H223    H    0.767100    0.446300    0.482400
H224    H    0.267100    0.553700    0.017600
H225    H    0.482400    0.732900    0.053700
H226    H    0.017600    0.232900    0.946300
H227    H    0.982400    0.267100    0.446300
H228    H    0.517600    0.767100    0.553700
H229    H    0.232400    0.303700    0.017100
H230    H    0.767600    0.196300    0.517100
H231    H    0.732400    0.696300    0.482900
H232    H    0.267600    0.803700    0.982900
H233    H    0.303700    0.982900    0.767600
H234    H    0.196300    0.482900    0.232400
H235    H    0.696300    0.517100    0.267600
H236    H    0.803700    0.017100    0.732400
H237    H    0.982900    0.232400    0.696300
H238    H    0.482900    0.767600    0.803700
H239    H    0.517100    0.732400    0.303700
H240    H    0.017100    0.267600    0.196300
H241    H    0.053700    0.482400    0.732900
H242    H    0.946300    0.017600    0.232900
H243    H    0.446300    0.982400    0.267100
H244    H    0.553700    0.517600    0.767100
H245    H    0.732900    0.553700    0.982400
H246    H    0.232900    0.446300    0.517600
H247    H    0.267100    0.946300    0.482400
H248    H    0.767100    0.053700    0.017600
H249    H    0.982400    0.232900    0.053700
H250    H    0.517600    0.732900    0.946300
H251    H    0.482400    0.767100    0.446300
H252    H    0.017600    0.267100    0.553700
H253    H    0.732400    0.803700    0.017100
H254    H    0.267600    0.696300    0.517100
H255    H    0.232400    0.196300    0.482900
H256    H    0.767600    0.303700    0.982900
H257    H    0.803700    0.482900    0.767600
H258    H    0.696300    0.982900    0.232400
H259    H    0.196300    0.017100    0.267600
H260    H    0.303700    0.517100    0.732400
H261    H    0.482900    0.732400    0.696300
H262    H    0.982900    0.267600    0.803700
H263    H    0.017100    0.232400    0.303700
H264    H    0.517100    0.767600    0.196300
H265    H    0.053700    0.982400    0.232900
H266    H    0.946300    0.517600    0.732900
H267    H    0.446300    0.482400    0.767100
H268    H    0.553700    0.017600    0.267100
H269    H    0.732900    0.053700    0.482400
H270    H    0.232900    0.946300    0.017600
H271    H    0.267100    0.446300    0.982400
H272    H    0.767100    0.553700    0.517600
H273    H    0.982400    0.732900    0.553700
H274    H    0.517600    0.232900    0.446300
H275    H    0.482400    0.267100    0.946300
H276    H    0.017600    0.767100    0.053700
H277    H    0.732400    0.303700    0.517100
H278    H    0.267600    0.196300    0.017100
H279    H    0.232400    0.696300    0.982900
H280    H    0.767600    0.803700    0.482900
H281    H    0.803700    0.982900    0.267600
H282    H    0.696300    0.482900    0.732400
H283    H    0.196300    0.517100    0.767600
H284    H    0.303700    0.017100    0.232400
H285    H    0.482900    0.232400    0.196300
H286    H    0.982900    0.767600    0.303700
H287    H    0.017100    0.732400    0.803700
H288    H    0.517100    0.267600    0.696300
C385    C    0.537000    0.542900    0.179700
C386    C    0.463000    0.957100    0.679700
C387    C    0.963000    0.042900    0.820300
C388    C    0.037000    0.457100    0.320300
C389    C    0.179700    0.537000    0.542900
C390    C    0.679700    0.463000    0.957100
C391    C    0.820300    0.963000    0.042900
C392    C    0.320300    0.037000    0.457100
C393    C    0.542900    0.179700    0.537000
C394    C    0.957100    0.679700    0.463000
C395    C    0.042900    0.820300    0.963000
C396    C    0.457100    0.320300    0.037000
C397    C    0.292900    0.787000    0.570300
C398    C    0.707100    0.713000    0.070300
C399    C    0.792900    0.213000    0.929700
C400    C    0.207100    0.287000    0.429700
C401    C    0.287000    0.429700    0.207100
C402    C    0.213000    0.929700    0.792900
C403    C    0.713000    0.070300    0.707100
C404    C    0.787000    0.570300    0.292900
C405    C    0.929700    0.792900    0.213000
C406    C    0.429700    0.207100    0.287000
C407    C    0.570300    0.292900    0.787000
C408    C    0.070300    0.707100    0.713000
C409    C    0.537000    0.042900    0.679700
C410    C    0.463000    0.457100    0.179700
C411    C    0.963000    0.542900    0.320300
C412    C    0.037000    0.957100    0.820300
C413    C    0.179700    0.037000    0.042900
C414    C    0.679700    0.963000    0.457100
C415    C    0.820300    0.463000    0.542900
C416    C    0.320300    0.537000    0.957100
C417    C    0.542900    0.679700    0.037000
C418    C    0.957100    0.179700    0.963000
C419    C    0.042900    0.320300    0.463000
C420    C    0.457100    0.820300    0.537000
C421    C    0.292900    0.287000    0.070300
C422    C    0.707100    0.213000    0.570300
C423    C    0.792900    0.713000    0.429700
C424    C    0.207100    0.787000    0.929700
C425    C    0.287000    0.929700    0.707100
C426    C    0.213000    0.429700    0.292900
C427    C    0.713000    0.570300    0.207100
C428    C    0.787000    0.070300    0.792900
C429    C    0.929700    0.292900    0.713000
C430    C    0.429700    0.707100    0.787000
C431    C    0.570300    0.792900    0.287000
C432    C    0.070300    0.207100    0.213000
C433    C    0.037000    0.542900    0.679700
C434    C    0.963000    0.957100    0.179700
C435    C    0.463000    0.042900    0.320300
C436    C    0.537000    0.457100    0.820300
C437    C    0.679700    0.537000    0.042900
C438    C    0.179700    0.463000    0.457100
C439    C    0.320300    0.963000    0.542900
C440    C    0.820300    0.037000    0.957100
C441    C    0.042900    0.179700    0.037000
C442    C    0.457100    0.679700    0.963000
C443    C    0.542900    0.820300    0.463000
C444    C    0.957100    0.320300    0.537000
C445    C    0.792900    0.787000    0.070300
C446    C    0.207100    0.713000    0.570300
C447    C    0.292900    0.213000    0.429700
C448    C    0.707100    0.287000    0.929700
C449    C    0.787000    0.429700    0.707100
C450    C    0.713000    0.929700    0.292900
C451    C    0.213000    0.070300    0.207100
C452    C    0.287000    0.570300    0.792900
C453    C    0.429700    0.792900    0.713000
C454    C    0.929700    0.207100    0.787000
C455    C    0.070300    0.292900    0.287000
C456    C    0.570300    0.707100    0.213000
C457    C    0.037000    0.042900    0.179700
C458    C    0.963000    0.457100    0.679700
C459    C    0.463000    0.542900    0.820300
C460    C    0.537000    0.957100    0.320300
C461    C    0.679700    0.037000    0.542900
C462    C    0.179700    0.963000    0.957100
C463    C    0.320300    0.463000    0.042900
C464    C    0.820300    0.537000    0.457100
C465    C    0.042900    0.679700    0.537000
C466    C    0.457100    0.179700    0.463000
C467    C    0.542900    0.320300    0.963000
C468    C    0.957100    0.820300    0.037000
C469    C    0.792900    0.287000    0.570300
C470    C    0.207100    0.213000    0.070300
C471    C    0.292900    0.713000    0.929700
C472    C    0.707100    0.787000    0.429700
C473    C    0.787000    0.929700    0.207100
C474    C    0.713000    0.429700    0.792900
C475    C    0.213000    0.570300    0.707100
C476    C    0.287000    0.070300    0.292900
C477    C    0.429700    0.292900    0.213000
C478    C    0.929700    0.707100    0.287000
C479    C    0.070300    0.792900    0.787000
C480    C    0.570300    0.207100    0.713000
H289    H    0.574200    0.554300    0.178600
H290    H    0.425800    0.945700    0.678600
H291    H    0.925800    0.054300    0.821400
H292    H    0.074200    0.445700    0.321400
H293    H    0.178600    0.574200    0.554300
H294    H    0.678600    0.425800    0.945700
H295    H    0.821400    0.925800    0.054300
H296    H    0.321400    0.074200    0.445700
H297    H    0.554300    0.178600    0.574200
H298    H    0.945700    0.678600    0.425800
H299    H    0.054300    0.821400    0.925800
H300    H    0.445700    0.321400    0.074200
H301    H    0.304300    0.824200    0.571400
H302    H    0.695700    0.675800    0.071400
H303    H    0.804300    0.175800    0.928600
H304    H    0.195700    0.324200    0.428600
H305    H    0.324200    0.428600    0.195700
H306    H    0.175800    0.928600    0.804300
H307    H    0.675800    0.071400    0.695700
H308    H    0.824200    0.571400    0.304300
H309    H    0.928600    0.804300    0.175800
H310    H    0.428600    0.195700    0.324200
H311    H    0.571400    0.304300    0.824200
H312    H    0.071400    0.695700    0.675800
H313    H    0.574200    0.054300    0.678600
H314    H    0.425800    0.445700    0.178600
H315    H    0.925800    0.554300    0.321400
H316    H    0.074200    0.945700    0.821400
H317    H    0.178600    0.074200    0.054300
H318    H    0.678600    0.925800    0.445700
H319    H    0.821400    0.425800    0.554300
H320    H    0.321400    0.574200    0.945700
H321    H    0.554300    0.678600    0.074200
H322    H    0.945700    0.178600    0.925800
H323    H    0.054300    0.321400    0.425800
H324    H    0.445700    0.821400    0.574200
H325    H    0.304300    0.324200    0.071400
H326    H    0.695700    0.175800    0.571400
H327    H    0.804300    0.675800    0.428600
H328    H    0.195700    0.824200    0.928600
H329    H    0.324200    0.928600    0.695700
H330    H    0.175800    0.428600    0.304300
H331    H    0.675800    0.571400    0.195700
H332    H    0.824200    0.071400    0.804300
H333    H    0.928600    0.304300    0.675800
H334    H    0.428600    0.695700    0.824200
H335    H    0.571400    0.804300    0.324200
H336    H    0.071400    0.195700    0.175800
H337    H    0.074200    0.554300    0.678600
H338    H    0.925800    0.945700    0.178600
H339    H    0.425800    0.054300    0.321400
H340    H    0.574200    0.445700    0.821400
H341    H    0.678600    0.574200    0.054300
H342    H    0.178600    0.425800    0.445700
H343    H    0.321400    0.925800    0.554300
H344    H    0.821400    0.074200    0.945700
H345    H    0.054300    0.178600    0.074200
H346    H    0.445700    0.678600    0.925800
H347    H    0.554300    0.821400    0.425800
H348    H    0.945700    0.321400    0.574200
H349    H    0.804300    0.824200    0.071400
H350    H    0.195700    0.675800    0.571400
H351    H    0.304300    0.175800    0.428600
H352    H    0.695700    0.324200    0.928600
H353    H    0.824200    0.428600    0.695700
H354    H    0.675800    0.928600    0.304300
H355    H    0.175800    0.071400    0.195700
H356    H    0.324200    0.571400    0.804300
H357    H    0.428600    0.804300    0.675800
H358    H    0.928600    0.195700    0.824200
H359    H    0.071400    0.304300    0.324200
H360    H    0.571400    0.695700    0.175800
H361    H    0.074200    0.054300    0.178600
H362    H    0.925800    0.445700    0.678600
H363    H    0.425800    0.554300    0.821400
H364    H    0.574200    0.945700    0.321400
H365    H    0.678600    0.074200    0.554300
H366    H    0.178600    0.925800    0.945700
H367    H    0.321400    0.425800    0.054300
H368    H    0.821400    0.574200    0.445700
H369    H    0.054300    0.678600    0.574200
H370    H    0.445700    0.178600    0.425800
H371    H    0.554300    0.321400    0.925800
H372    H    0.945700    0.821400    0.074200
H373    H    0.804300    0.324200    0.571400
H374    H    0.195700    0.175800    0.071400
H375    H    0.304300    0.675800    0.928600
H376    H    0.695700    0.824200    0.428600
H377    H    0.824200    0.928600    0.195700
H378    H    0.675800    0.428600    0.804300
H379    H    0.175800    0.571400    0.695700
H380    H    0.324200    0.071400    0.304300
H381    H    0.428600    0.304300    0.175800
H382    H    0.928600    0.695700    0.324200
H383    H    0.071400    0.804300    0.824200
H384    H    0.571400    0.195700    0.675800
H385    H    0.514900    0.574900    0.180100
H386    H    0.485100    0.925100    0.680100
H387    H    0.985100    0.074900    0.819900
H388    H    0.014900    0.425100    0.319900
H389    H    0.180100    0.514900    0.574900
H390    H    0.680100    0.485100    0.925100
H391    H    0.819900    0.985100    0.074900
H392    H    0.319900    0.014900    0.425100
H393    H    0.574900    0.180100    0.514900
H394    H    0.925100    0.680100    0.485100
H395    H    0.074900    0.819900    0.985100
H396    H    0.425100    0.319900    0.014900
H397    H    0.324900    0.764900    0.569900
H398    H    0.675100    0.735100    0.069900
H399    H    0.824900    0.235100    0.930100
H400    H    0.175100    0.264900    0.430100
H401    H    0.264900    0.430100    0.175100
H402    H    0.235100    0.930100    0.824900
H403    H    0.735100    0.069900    0.675100
H404    H    0.764900    0.569900    0.324900
H405    H    0.930100    0.824900    0.235100
H406    H    0.430100    0.175100    0.264900
H407    H    0.569900    0.324900    0.764900
H408    H    0.069900    0.675100    0.735100
H409    H    0.514900    0.074900    0.680100
H410    H    0.485100    0.425100    0.180100
H411    H    0.985100    0.574900    0.319900
H412    H    0.014900    0.925100    0.819900
H413    H    0.180100    0.014900    0.074900
H414    H    0.680100    0.985100    0.425100
H415    H    0.819900    0.485100    0.574900
H416    H    0.319900    0.514900    0.925100
H417    H    0.574900    0.680100    0.014900
H418    H    0.925100    0.180100    0.985100
H419    H    0.074900    0.319900    0.485100
H420    H    0.425100    0.819900    0.514900
H421    H    0.324900    0.264900    0.069900
H422    H    0.675100    0.235100    0.569900
H423    H    0.824900    0.735100    0.430100
H424    H    0.175100    0.764900    0.930100
H425    H    0.264900    0.930100    0.675100
H426    H    0.235100    0.430100    0.324900
H427    H    0.735100    0.569900    0.175100
H428    H    0.764900    0.069900    0.824900
H429    H    0.930100    0.324900    0.735100
H430    H    0.430100    0.675100    0.764900
H431    H    0.569900    0.824900    0.264900
H432    H    0.069900    0.175100    0.235100
H433    H    0.014900    0.574900    0.680100
H434    H    0.985100    0.925100    0.180100
H435    H    0.485100    0.074900    0.319900
H436    H    0.514900    0.425100    0.819900
H437    H    0.680100    0.514900    0.074900
H438    H    0.180100    0.485100    0.425100
H439    H    0.319900    0.985100    0.574900
H440    H    0.819900    0.014900    0.925100
H441    H    0.074900    0.180100    0.014900
H442    H    0.425100    0.680100    0.985100
H443    H    0.574900    0.819900    0.485100
H444    H    0.925100    0.319900    0.514900
H445    H    0.824900    0.764900    0.069900
H446    H    0.175100    0.735100    0.569900
H447    H    0.324900    0.235100    0.430100
H448    H    0.675100    0.264900    0.930100
H449    H    0.764900    0.430100    0.675100
H450    H    0.735100    0.930100    0.324900
H451    H    0.235100    0.069900    0.175100
H452    H    0.264900    0.569900    0.824900
H453    H    0.430100    0.824900    0.735100
H454    H    0.930100    0.175100    0.764900
H455    H    0.069900    0.324900    0.264900
H456    H    0.569900    0.675100    0.235100
H457    H    0.014900    0.074900    0.180100
H458    H    0.985100    0.425100    0.680100
H459    H    0.485100    0.574900    0.819900
H460    H    0.514900    0.925100    0.319900
H461    H    0.680100    0.014900    0.574900
H462    H    0.180100    0.985100    0.925100
H463    H    0.319900    0.485100    0.074900
H464    H    0.819900    0.514900    0.425100
H465    H    0.074900    0.680100    0.514900
H466    H    0.425100    0.180100    0.485100
H467    H    0.574900    0.319900    0.985100
H468    H    0.925100    0.819900    0.014900
H469    H    0.824900    0.264900    0.569900
H470    H    0.175100    0.235100    0.069900
H471    H    0.324900    0.735100    0.930100
H472    H    0.675100    0.764900    0.430100
H473    H    0.764900    0.930100    0.175100
H474    H    0.735100    0.430100    0.824900
H475    H    0.235100    0.569900    0.675100
H476    H    0.264900    0.069900    0.324900
H477    H    0.430100    0.324900    0.235100
H478    H    0.930100    0.675100    0.264900
H479    H    0.069900    0.824900    0.764900
H480    H    0.569900    0.175100    0.735100
C481    C    0.525000    0.511900    0.130300
C482    C    0.475000    0.988100    0.630300
C483    C    0.975000    0.011900    0.869700
C484    C    0.025000    0.488100    0.369700
C485    C    0.130300    0.525000    0.511900
C486    C    0.630300    0.475000    0.988100
C487    C    0.869700    0.975000    0.011900
C488    C    0.369700    0.025000    0.488100
C489    C    0.511900    0.130300    0.525000
C490    C    0.988100    0.630300    0.475000
C491    C    0.011900    0.869700    0.975000
C492    C    0.488100    0.369700    0.025000
C493    C    0.261900    0.775000    0.619700
C494    C    0.738100    0.725000    0.119700
C495    C    0.761900    0.225000    0.880300
C496    C    0.238100    0.275000    0.380300
C497    C    0.275000    0.380300    0.238100
C498    C    0.225000    0.880300    0.761900
C499    C    0.725000    0.119700    0.738100
C500    C    0.775000    0.619700    0.261900
C501    C    0.880300    0.761900    0.225000
C502    C    0.380300    0.238100    0.275000
C503    C    0.619700    0.261900    0.775000
C504    C    0.119700    0.738100    0.725000
C505    C    0.525000    0.011900    0.630300
C506    C    0.475000    0.488100    0.130300
C507    C    0.975000    0.511900    0.369700
C508    C    0.025000    0.988100    0.869700
C509    C    0.130300    0.025000    0.011900
C510    C    0.630300    0.975000    0.488100
C511    C    0.869700    0.475000    0.511900
C512    C    0.369700    0.525000    0.988100
C513    C    0.511900    0.630300    0.025000
C514    C    0.988100    0.130300    0.975000
C515    C    0.011900    0.369700    0.475000
C516    C    0.488100    0.869700    0.525000
C517    C    0.261900    0.275000    0.119700
C518    C    0.738100    0.225000    0.619700
C519    C    0.761900    0.725000    0.380300
C520    C    0.238100    0.775000    0.880300
C521    C    0.275000    0.880300    0.738100
C522    C    0.225000    0.380300    0.261900
C523    C    0.725000    0.619700    0.238100
C524    C    0.775000    0.119700    0.761900
C525    C    0.880300    0.261900    0.725000
C526    C    0.380300    0.738100    0.775000
C527    C    0.619700    0.761900    0.275000
C528    C    0.119700    0.238100    0.225000
C529    C    0.025000    0.511900    0.630300
C530    C    0.975000    0.988100    0.130300
C531    C    0.475000    0.011900    0.369700
C532    C    0.525000    0.488100    0.869700
C533    C    0.630300    0.525000    0.011900
C534    C    0.130300    0.475000    0.488100
C535    C    0.369700    0.975000    0.511900
C536    C    0.869700    0.025000    0.988100
C537    C    0.011900    0.130300    0.025000
C538    C    0.488100    0.630300    0.975000
C539    C    0.511900    0.869700    0.475000
C540    C    0.988100    0.369700    0.525000
C541    C    0.761900    0.775000    0.119700
C542    C    0.238100    0.725000    0.619700
C543    C    0.261900    0.225000    0.380300
C544    C    0.738100    0.275000    0.880300
C545    C    0.775000    0.380300    0.738100
C546    C    0.725000    0.880300    0.261900
C547    C    0.225000    0.119700    0.238100
C548    C    0.275000    0.619700    0.761900
C549    C    0.380300    0.761900    0.725000
C550    C    0.880300    0.238100    0.775000
C551    C    0.119700    0.261900    0.275000
C552    C    0.619700    0.738100    0.225000
C553    C    0.025000    0.011900    0.130300
C554    C    0.975000    0.488100    0.630300
C555    C    0.475000    0.511900    0.869700
C556    C    0.525000    0.988100    0.369700
C557    C    0.630300    0.025000    0.511900
C558    C    0.130300    0.975000    0.988100
C559    C    0.369700    0.475000    0.011900
C560    C    0.869700    0.525000    0.488100
C561    C    0.011900    0.630300    0.525000
C562    C    0.488100    0.130300    0.475000
C563    C    0.511900    0.369700    0.975000
C564    C    0.988100    0.869700    0.025000
C565    C    0.761900    0.275000    0.619700
C566    C    0.238100    0.225000    0.119700
C567    C    0.261900    0.725000    0.880300
C568    C    0.738100    0.775000    0.380300
C569    C    0.775000    0.880300    0.238100
C570    C    0.725000    0.380300    0.761900
C571    C    0.225000    0.619700    0.738100
C572    C    0.275000    0.119700    0.261900
C573    C    0.380300    0.261900    0.225000
C574    C    0.880300    0.738100    0.275000
C575    C    0.119700    0.761900    0.775000
C576    C    0.619700    0.238100    0.725000
H481    H    0.527600    0.535700    0.099600
H482    H    0.472400    0.964300    0.599600
H483    H    0.972400    0.035700    0.900400
H484    H    0.027600    0.464300    0.400400
H485    H    0.099600    0.527600    0.535700
H486    H    0.599600    0.472400    0.964300
H487    H    0.900400    0.972400    0.035700
H488    H    0.400400    0.027600    0.464300
H489    H    0.535700    0.099600    0.527600
H490    H    0.964300    0.599600    0.472400
H491    H    0.035700    0.900400    0.972400
H492    H    0.464300    0.400400    0.027600
H493    H    0.285700    0.777600    0.650400
H494    H    0.714300    0.722400    0.150400
H495    H    0.785700    0.222400    0.849600
H496    H    0.214300    0.277600    0.349600
H497    H    0.277600    0.349600    0.214300
H498    H    0.222400    0.849600    0.785700
H499    H    0.722400    0.150400    0.714300
H500    H    0.777600    0.650400    0.285700
H501    H    0.849600    0.785700    0.222400
H502    H    0.349600    0.214300    0.277600
H503    H    0.650400    0.285700    0.777600
H504    H    0.150400    0.714300    0.722400
H505    H    0.527600    0.035700    0.599600
H506    H    0.472400    0.464300    0.099600
H507    H    0.972400    0.535700    0.400400
H508    H    0.027600    0.964300    0.900400
H509    H    0.099600    0.027600    0.035700
H510    H    0.599600    0.972400    0.464300
H511    H    0.900400    0.472400    0.535700
H512    H    0.400400    0.527600    0.964300
H513    H    0.535700    0.599600    0.027600
H514    H    0.964300    0.099600    0.972400
H515    H    0.035700    0.400400    0.472400
H516    H    0.464300    0.900400    0.527600
H517    H    0.285700    0.277600    0.150400
H518    H    0.714300    0.222400    0.650400
H519    H    0.785700    0.722400    0.349600
H520    H    0.214300    0.777600    0.849600
H521    H    0.277600    0.849600    0.714300
H522    H    0.222400    0.349600    0.285700
H523    H    0.722400    0.650400    0.214300
H524    H    0.777600    0.150400    0.785700
H525    H    0.849600    0.285700    0.722400
H526    H    0.349600    0.714300    0.777600
H527    H    0.650400    0.785700    0.277600
H528    H    0.150400    0.214300    0.222400
H529    H    0.027600    0.535700    0.599600
H530    H    0.972400    0.964300    0.099600
H531    H    0.472400    0.035700    0.400400
H532    H    0.527600    0.464300    0.900400
H533    H    0.599600    0.527600    0.035700
H534    H    0.099600    0.472400    0.464300
H535    H    0.400400    0.972400    0.535700
H536    H    0.900400    0.027600    0.964300
H537    H    0.035700    0.099600    0.027600
H538    H    0.464300    0.599600    0.972400
H539    H    0.535700    0.900400    0.472400
H540    H    0.964300    0.400400    0.527600
H541    H    0.785700    0.777600    0.150400
H542    H    0.214300    0.722400    0.650400
H543    H    0.285700    0.222400    0.349600
H544    H    0.714300    0.277600    0.849600
H545    H    0.777600    0.349600    0.714300
H546    H    0.722400    0.849600    0.285700
H547    H    0.222400    0.150400    0.214300
H548    H    0.277600    0.650400    0.785700
H549    H    0.349600    0.785700    0.722400
H550    H    0.849600    0.214300    0.777600
H551    H    0.150400    0.285700    0.277600
H552    H    0.650400    0.714300    0.222400
H553    H    0.027600    0.035700    0.099600
H554    H    0.972400    0.464300    0.599600
H555    H    0.472400    0.535700    0.900400
H556    H    0.527600    0.964300    0.400400
H557    H    0.599600    0.027600    0.535700
H558    H    0.099600    0.972400    0.964300
H559    H    0.400400    0.472400    0.035700
H560    H    0.900400    0.527600    0.464300
H561    H    0.035700    0.599600    0.527600
H562    H    0.464300    0.099600    0.472400
H563    H    0.535700    0.400400    0.972400
H564    H    0.964300    0.900400    0.027600
H565    H    0.785700    0.277600    0.650400
H566    H    0.214300    0.222400    0.150400
H567    H    0.285700    0.722400    0.849600
H568    H    0.714300    0.777600    0.349600
H569    H    0.777600    0.849600    0.214300
H570    H    0.722400    0.349600    0.785700
H571    H    0.222400    0.650400    0.714300
H572    H    0.277600    0.150400    0.285700
H573    H    0.349600    0.285700    0.222400
H574    H    0.849600    0.714300    0.277600
H575    H    0.150400    0.785700    0.777600
H576    H    0.650400    0.214300    0.722400
H577    H    0.552000    0.484200    0.126000
H578    H    0.448000    0.015800    0.626000
H579    H    0.948000    0.984200    0.874000
H580    H    0.052000    0.515800    0.374000
H581    H    0.126000    0.552000    0.484200
H582    H    0.626000    0.448000    0.015800
H583    H    0.874000    0.948000    0.984200
H584    H    0.374000    0.052000    0.515800
H585    H    0.484200    0.126000    0.552000
H586    H    0.015800    0.626000    0.448000
H587    H    0.984200    0.874000    0.948000
H588    H    0.515800    0.374000    0.052000
H589    H    0.234200    0.802000    0.624000
H590    H    0.765800    0.698000    0.124000
H591    H    0.734200    0.198000    0.876000
H592    H    0.265800    0.302000    0.376000
H593    H    0.302000    0.376000    0.265800
H594    H    0.198000    0.876000    0.734200
H595    H    0.698000    0.124000    0.765800
H596    H    0.802000    0.624000    0.234200
H597    H    0.876000    0.734200    0.198000
H598    H    0.376000    0.265800    0.302000
H599    H    0.624000    0.234200    0.802000
H600    H    0.124000    0.765800    0.698000
H601    H    0.552000    0.984200    0.626000
H602    H    0.448000    0.515800    0.126000
H603    H    0.948000    0.484200    0.374000
H604    H    0.052000    0.015800    0.874000
H605    H    0.126000    0.052000    0.984200
H606    H    0.626000    0.948000    0.515800
H607    H    0.874000    0.448000    0.484200
H608    H    0.374000    0.552000    0.015800
H609    H    0.484200    0.626000    0.052000
H610    H    0.015800    0.126000    0.948000
H611    H    0.984200    0.374000    0.448000
H612    H    0.515800    0.874000    0.552000
H613    H    0.234200    0.302000    0.124000
H614    H    0.765800    0.198000    0.624000
H615    H    0.734200    0.698000    0.376000
H616    H    0.265800    0.802000    0.876000
H617    H    0.302000    0.876000    0.765800
H618    H    0.198000    0.376000    0.234200
H619    H    0.698000    0.624000    0.265800
H620    H    0.802000    0.124000    0.734200
H621    H    0.876000    0.234200    0.698000
H622    H    0.376000    0.765800    0.802000
H623    H    0.624000    0.734200    0.302000
H624    H    0.124000    0.265800    0.198000
H625    H    0.052000    0.484200    0.626000
H626    H    0.948000    0.015800    0.126000
H627    H    0.448000    0.984200    0.374000
H628    H    0.552000    0.515800    0.874000
H629    H    0.626000    0.552000    0.984200
H630    H    0.126000    0.448000    0.515800
H631    H    0.374000    0.948000    0.484200
H632    H    0.874000    0.052000    0.015800
H633    H    0.984200    0.126000    0.052000
H634    H    0.515800    0.626000    0.948000
H635    H    0.484200    0.874000    0.448000
H636    H    0.015800    0.374000    0.552000
H637    H    0.734200    0.802000    0.124000
H638    H    0.265800    0.698000    0.624000
H639    H    0.234200    0.198000    0.376000
H640    H    0.765800    0.302000    0.876000
H641    H    0.802000    0.376000    0.765800
H642    H    0.698000    0.876000    0.234200
H643    H    0.198000    0.124000    0.265800
H644    H    0.302000    0.624000    0.734200
H645    H    0.376000    0.734200    0.698000
H646    H    0.876000    0.265800    0.802000
H647    H    0.124000    0.234200    0.302000
H648    H    0.624000    0.765800    0.198000
H649    H    0.052000    0.984200    0.126000
H650    H    0.948000    0.515800    0.626000
H651    H    0.448000    0.484200    0.874000
H652    H    0.552000    0.015800    0.374000
H653    H    0.626000    0.052000    0.484200
H654    H    0.126000    0.948000    0.015800
H655    H    0.374000    0.448000    0.984200
H656    H    0.874000    0.552000    0.515800
H657    H    0.984200    0.626000    0.552000
H658    H    0.515800    0.126000    0.448000
H659    H    0.484200    0.374000    0.948000
H660    H    0.015800    0.874000    0.052000
H661    H    0.734200    0.302000    0.624000
H662    H    0.265800    0.198000    0.124000
H663    H    0.234200    0.698000    0.876000
H664    H    0.765800    0.802000    0.376000
H665    H    0.802000    0.876000    0.265800
H666    H    0.698000    0.376000    0.734200
H667    H    0.198000    0.624000    0.765800
H668    H    0.302000    0.124000    0.234200
H669    H    0.376000    0.234200    0.198000
H670    H    0.876000    0.765800    0.302000
H671    H    0.124000    0.734200    0.802000
H672    H    0.624000    0.265800    0.698000
