data_CC3_PM
_symmetry_space_group_name_H-M	'P1'
_cell_length_a	24.926100
_cell_length_b	24.926100
_cell_length_c	24.926100
_cell_angle_alpha	90.000000
_cell_angle_beta	90.000000
_cell_angle_gamma	90.000000
_symmetry_Int_Tables_number 1

loop_
_symmetry_equiv_pos_as_xyz
'x,y,z'

loop_
_atom_site_label
_atom_site_type_symbol
_atom_site_fract_x
_atom_site_fract_y
_atom_site_fract_z
N	N	0.536000	0.546200	0.276700
N	N	0.464000	0.953800	0.776700
N	N	0.964000	0.046200	0.723300
N	N	0.036000	0.453800	0.223300
N	N	0.276700	0.536000	0.546200
N	N	0.776700	0.464000	0.953800
N	N	0.723300	0.964000	0.046200
N	N	0.223300	0.036000	0.453800
N	N	0.546200	0.276700	0.536000
N	N	0.953800	0.776700	0.464000
N	N	0.046200	0.723300	0.964000
N	N	0.453800	0.223300	0.036000
N	N	0.296200	0.786000	0.473300
N	N	0.703800	0.714000	0.973300
N	N	0.796200	0.214000	0.026700
N	N	0.203800	0.286000	0.526700
N	N	0.286000	0.526700	0.203800
N	N	0.214000	0.026700	0.796200
N	N	0.714000	0.973300	0.703800
N	N	0.786000	0.473300	0.296200
N	N	0.026700	0.796200	0.214000
N	N	0.526700	0.203800	0.286000
N	N	0.473300	0.296200	0.786000
N	N	0.973300	0.703800	0.714000
N	N	0.536000	0.046200	0.776700
N	N	0.464000	0.453800	0.276700
N	N	0.964000	0.546200	0.223300
N	N	0.036000	0.953800	0.723300
N	N	0.276700	0.036000	0.046200
N	N	0.776700	0.964000	0.453800
N	N	0.723300	0.464000	0.546200
N	N	0.223300	0.536000	0.953800
N	N	0.546200	0.776700	0.036000
N	N	0.953800	0.276700	0.964000
N	N	0.046200	0.223300	0.464000
N	N	0.453800	0.723300	0.536000
N	N	0.296200	0.286000	0.973300
N	N	0.703800	0.214000	0.473300
N	N	0.796200	0.714000	0.526700
N	N	0.203800	0.786000	0.026700
N	N	0.286000	0.026700	0.703800
N	N	0.214000	0.526700	0.296200
N	N	0.714000	0.473300	0.203800
N	N	0.786000	0.973300	0.796200
N	N	0.026700	0.296200	0.714000
N	N	0.526700	0.703800	0.786000
N	N	0.473300	0.796200	0.286000
N	N	0.973300	0.203800	0.214000
N	N	0.036000	0.546200	0.776700
N	N	0.964000	0.953800	0.276700
N	N	0.464000	0.046200	0.223300
N	N	0.536000	0.453800	0.723300
N	N	0.776700	0.536000	0.046200
N	N	0.276700	0.464000	0.453800
N	N	0.223300	0.964000	0.546200
N	N	0.723300	0.036000	0.953800
N	N	0.046200	0.276700	0.036000
N	N	0.453800	0.776700	0.964000
N	N	0.546200	0.723300	0.464000
N	N	0.953800	0.223300	0.536000
N	N	0.796200	0.786000	0.973300
N	N	0.203800	0.714000	0.473300
N	N	0.296200	0.214000	0.526700
N	N	0.703800	0.286000	0.026700
N	N	0.786000	0.526700	0.703800
N	N	0.714000	0.026700	0.296200
N	N	0.214000	0.973300	0.203800
N	N	0.286000	0.473300	0.796200
N	N	0.526700	0.796200	0.714000
N	N	0.026700	0.203800	0.786000
N	N	0.973300	0.296200	0.286000
N	N	0.473300	0.703800	0.214000
N	N	0.036000	0.046200	0.276700
N	N	0.964000	0.453800	0.776700
N	N	0.464000	0.546200	0.723300
N	N	0.536000	0.953800	0.223300
N	N	0.776700	0.036000	0.546200
N	N	0.276700	0.964000	0.953800
N	N	0.223300	0.464000	0.046200
N	N	0.723300	0.536000	0.453800
N	N	0.046200	0.776700	0.536000
N	N	0.453800	0.276700	0.464000
N	N	0.546200	0.223300	0.964000
N	N	0.953800	0.723300	0.036000
N	N	0.796200	0.286000	0.473300
N	N	0.203800	0.214000	0.973300
N	N	0.296200	0.714000	0.026700
N	N	0.703800	0.786000	0.526700
N	N	0.786000	0.026700	0.203800
N	N	0.714000	0.526700	0.796200
N	N	0.214000	0.473300	0.703800
N	N	0.286000	0.973300	0.296200
N	N	0.526700	0.296200	0.214000
N	N	0.026700	0.703800	0.286000
N	N	0.973300	0.796200	0.786000
N	N	0.473300	0.203800	0.714000
C	C	0.556700	0.614700	0.366900
C	C	0.443300	0.885300	0.866900
C	C	0.943300	0.114700	0.633100
C	C	0.056700	0.385300	0.133100
C	C	0.366900	0.556700	0.614700
C	C	0.866900	0.443300	0.885300
C	C	0.633100	0.943300	0.114700
C	C	0.133100	0.056700	0.385300
C	C	0.614700	0.366900	0.556700
C	C	0.885300	0.866900	0.443300
C	C	0.114700	0.633100	0.943300
C	C	0.385300	0.133100	0.056700
C	C	0.364700	0.806700	0.383100
C	C	0.635300	0.693300	0.883100
C	C	0.864700	0.193300	0.116900
C	C	0.135300	0.306700	0.616900
C	C	0.306700	0.616900	0.135300
C	C	0.193300	0.116900	0.864700
C	C	0.693300	0.883100	0.635300
C	C	0.806700	0.383100	0.364700
C	C	0.116900	0.864700	0.193300
C	C	0.616900	0.135300	0.306700
C	C	0.383100	0.364700	0.806700
C	C	0.883100	0.635300	0.693300
C	C	0.556700	0.114700	0.866900
C	C	0.443300	0.385300	0.366900
C	C	0.943300	0.614700	0.133100
C	C	0.056700	0.885300	0.633100
C	C	0.366900	0.056700	0.114700
C	C	0.866900	0.943300	0.385300
C	C	0.633100	0.443300	0.614700
C	C	0.133100	0.556700	0.885300
C	C	0.614700	0.866900	0.056700
C	C	0.885300	0.366900	0.943300
C	C	0.114700	0.133100	0.443300
C	C	0.385300	0.633100	0.556700
C	C	0.364700	0.306700	0.883100
C	C	0.635300	0.193300	0.383100
C	C	0.864700	0.693300	0.616900
C	C	0.135300	0.806700	0.116900
C	C	0.306700	0.116900	0.635300
C	C	0.193300	0.616900	0.364700
C	C	0.693300	0.383100	0.135300
C	C	0.806700	0.883100	0.864700
C	C	0.116900	0.364700	0.693300
C	C	0.616900	0.635300	0.806700
C	C	0.383100	0.864700	0.306700
C	C	0.883100	0.135300	0.193300
C	C	0.056700	0.614700	0.866900
C	C	0.943300	0.885300	0.366900
C	C	0.443300	0.114700	0.133100
C	C	0.556700	0.385300	0.633100
C	C	0.866900	0.556700	0.114700
C	C	0.366900	0.443300	0.385300
C	C	0.133100	0.943300	0.614700
C	C	0.633100	0.056700	0.885300
C	C	0.114700	0.366900	0.056700
C	C	0.385300	0.866900	0.943300
C	C	0.614700	0.633100	0.443300
C	C	0.885300	0.133100	0.556700
C	C	0.864700	0.806700	0.883100
C	C	0.135300	0.693300	0.383100
C	C	0.364700	0.193300	0.616900
C	C	0.635300	0.306700	0.116900
C	C	0.806700	0.616900	0.635300
C	C	0.693300	0.116900	0.364700
C	C	0.193300	0.883100	0.135300
C	C	0.306700	0.383100	0.864700
C	C	0.616900	0.864700	0.693300
C	C	0.116900	0.135300	0.806700
C	C	0.883100	0.364700	0.306700
C	C	0.383100	0.635300	0.193300
C	C	0.056700	0.114700	0.366900
C	C	0.943300	0.385300	0.866900
C	C	0.443300	0.614700	0.633100
C	C	0.556700	0.885300	0.133100
C	C	0.866900	0.056700	0.614700
C	C	0.366900	0.943300	0.885300
C	C	0.133100	0.443300	0.114700
C	C	0.633100	0.556700	0.385300
C	C	0.114700	0.866900	0.556700
C	C	0.385300	0.366900	0.443300
C	C	0.614700	0.133100	0.943300
C	C	0.885300	0.633100	0.056700
C	C	0.864700	0.306700	0.383100
C	C	0.135300	0.193300	0.883100
C	C	0.364700	0.693300	0.116900
C	C	0.635300	0.806700	0.616900
C	C	0.806700	0.116900	0.135300
C	C	0.693300	0.616900	0.864700
C	C	0.193300	0.383100	0.635300
C	C	0.306700	0.883100	0.364700
C	C	0.616900	0.364700	0.193300
C	C	0.116900	0.635300	0.306700
C	C	0.883100	0.864700	0.806700
C	C	0.383100	0.135300	0.693300
H	H	0.526500	0.623200	0.346700
H	H	0.473500	0.876800	0.846700
H	H	0.973500	0.123200	0.653300
H	H	0.026500	0.376800	0.153300
H	H	0.346700	0.526500	0.623200
H	H	0.846700	0.473500	0.876800
H	H	0.653300	0.973500	0.123200
H	H	0.153300	0.026500	0.376800
H	H	0.623200	0.346700	0.526500
H	H	0.876800	0.846700	0.473500
H	H	0.123200	0.653300	0.973500
H	H	0.376800	0.153300	0.026500
H	H	0.373200	0.776500	0.403300
H	H	0.626800	0.723500	0.903300
H	H	0.873200	0.223500	0.096700
H	H	0.126800	0.276500	0.596700
H	H	0.276500	0.596700	0.126800
H	H	0.223500	0.096700	0.873200
H	H	0.723500	0.903300	0.626800
H	H	0.776500	0.403300	0.373200
H	H	0.096700	0.873200	0.223500
H	H	0.596700	0.126800	0.276500
H	H	0.403300	0.373200	0.776500
H	H	0.903300	0.626800	0.723500
H	H	0.526500	0.123200	0.846700
H	H	0.473500	0.376800	0.346700
H	H	0.973500	0.623200	0.153300
H	H	0.026500	0.876800	0.653300
H	H	0.346700	0.026500	0.123200
H	H	0.846700	0.973500	0.376800
H	H	0.653300	0.473500	0.623200
H	H	0.153300	0.526500	0.876800
H	H	0.623200	0.846700	0.026500
H	H	0.876800	0.346700	0.973500
H	H	0.123200	0.153300	0.473500
H	H	0.376800	0.653300	0.526500
H	H	0.373200	0.276500	0.903300
H	H	0.626800	0.223500	0.403300
H	H	0.873200	0.723500	0.596700
H	H	0.126800	0.776500	0.096700
H	H	0.276500	0.096700	0.626800
H	H	0.223500	0.596700	0.373200
H	H	0.723500	0.403300	0.126800
H	H	0.776500	0.903300	0.873200
H	H	0.096700	0.373200	0.723500
H	H	0.596700	0.626800	0.776500
H	H	0.403300	0.873200	0.276500
H	H	0.903300	0.126800	0.223500
H	H	0.026500	0.623200	0.846700
H	H	0.973500	0.876800	0.346700
H	H	0.473500	0.123200	0.153300
H	H	0.526500	0.376800	0.653300
H	H	0.846700	0.526500	0.123200
H	H	0.346700	0.473500	0.376800
H	H	0.153300	0.973500	0.623200
H	H	0.653300	0.026500	0.876800
H	H	0.123200	0.346700	0.026500
H	H	0.376800	0.846700	0.973500
H	H	0.623200	0.653300	0.473500
H	H	0.876800	0.153300	0.526500
H	H	0.873200	0.776500	0.903300
H	H	0.126800	0.723500	0.403300
H	H	0.373200	0.223500	0.596700
H	H	0.626800	0.276500	0.096700
H	H	0.776500	0.596700	0.626800
H	H	0.723500	0.096700	0.373200
H	H	0.223500	0.903300	0.126800
H	H	0.276500	0.403300	0.873200
H	H	0.596700	0.873200	0.723500
H	H	0.096700	0.126800	0.776500
H	H	0.903300	0.373200	0.276500
H	H	0.403300	0.626800	0.223500
H	H	0.026500	0.123200	0.346700
H	H	0.973500	0.376800	0.846700
H	H	0.473500	0.623200	0.653300
H	H	0.526500	0.876800	0.153300
H	H	0.846700	0.026500	0.623200
H	H	0.346700	0.973500	0.876800
H	H	0.153300	0.473500	0.123200
H	H	0.653300	0.526500	0.376800
H	H	0.123200	0.846700	0.526500
H	H	0.376800	0.346700	0.473500
H	H	0.623200	0.153300	0.973500
H	H	0.876800	0.653300	0.026500
H	H	0.873200	0.276500	0.403300
H	H	0.126800	0.223500	0.903300
H	H	0.373200	0.723500	0.096700
H	H	0.626800	0.776500	0.596700
H	H	0.776500	0.096700	0.126800
H	H	0.723500	0.596700	0.873200
H	H	0.223500	0.403300	0.626800
H	H	0.276500	0.903300	0.373200
H	H	0.596700	0.373200	0.223500
H	H	0.096700	0.626800	0.276500
H	H	0.903300	0.873200	0.776500
H	H	0.403300	0.126800	0.723500
C	C	0.588000	0.570900	0.353200
C	C	0.412000	0.929100	0.853200
C	C	0.912000	0.070900	0.646800
C	C	0.088000	0.429100	0.146800
C	C	0.353200	0.588000	0.570900
C	C	0.853200	0.412000	0.929100
C	C	0.646800	0.912000	0.070900
C	C	0.146800	0.088000	0.429100
C	C	0.570900	0.353200	0.588000
C	C	0.929100	0.853200	0.412000
C	C	0.070900	0.646800	0.912000
C	C	0.429100	0.146800	0.088000
C	C	0.320900	0.838000	0.396800
C	C	0.679100	0.662000	0.896800
C	C	0.820900	0.162000	0.103200
C	C	0.179100	0.338000	0.603200
C	C	0.338000	0.603200	0.179100
C	C	0.162000	0.103200	0.820900
C	C	0.662000	0.896800	0.679100
C	C	0.838000	0.396800	0.320900
C	C	0.103200	0.820900	0.162000
C	C	0.603200	0.179100	0.338000
C	C	0.396800	0.320900	0.838000
C	C	0.896800	0.679100	0.662000
C	C	0.588000	0.070900	0.853200
C	C	0.412000	0.429100	0.353200
C	C	0.912000	0.570900	0.146800
C	C	0.088000	0.929100	0.646800
C	C	0.353200	0.088000	0.070900
C	C	0.853200	0.912000	0.429100
C	C	0.646800	0.412000	0.570900
C	C	0.146800	0.588000	0.929100
C	C	0.570900	0.853200	0.088000
C	C	0.929100	0.353200	0.912000
C	C	0.070900	0.146800	0.412000
C	C	0.429100	0.646800	0.588000
C	C	0.320900	0.338000	0.896800
C	C	0.679100	0.162000	0.396800
C	C	0.820900	0.662000	0.603200
C	C	0.179100	0.838000	0.103200
C	C	0.338000	0.103200	0.679100
C	C	0.162000	0.603200	0.320900
C	C	0.662000	0.396800	0.179100
C	C	0.838000	0.896800	0.820900
C	C	0.103200	0.320900	0.662000
C	C	0.603200	0.679100	0.838000
C	C	0.396800	0.820900	0.338000
C	C	0.896800	0.179100	0.162000
C	C	0.088000	0.570900	0.853200
C	C	0.912000	0.929100	0.353200
C	C	0.412000	0.070900	0.146800
C	C	0.588000	0.429100	0.646800
C	C	0.853200	0.588000	0.070900
C	C	0.353200	0.412000	0.429100
C	C	0.146800	0.912000	0.570900
C	C	0.646800	0.088000	0.929100
C	C	0.070900	0.353200	0.088000
C	C	0.429100	0.853200	0.912000
C	C	0.570900	0.646800	0.412000
C	C	0.929100	0.146800	0.588000
C	C	0.820900	0.838000	0.896800
C	C	0.179100	0.662000	0.396800
C	C	0.320900	0.162000	0.603200
C	C	0.679100	0.338000	0.103200
C	C	0.838000	0.603200	0.679100
C	C	0.662000	0.103200	0.320900
C	C	0.162000	0.896800	0.179100
C	C	0.338000	0.396800	0.820900
C	C	0.603200	0.820900	0.662000
C	C	0.103200	0.179100	0.838000
C	C	0.896800	0.320900	0.338000
C	C	0.396800	0.679100	0.162000
C	C	0.088000	0.070900	0.353200
C	C	0.912000	0.429100	0.853200
C	C	0.412000	0.570900	0.646800
C	C	0.588000	0.929100	0.146800
C	C	0.853200	0.088000	0.570900
C	C	0.353200	0.912000	0.929100
C	C	0.146800	0.412000	0.070900
C	C	0.646800	0.588000	0.429100
C	C	0.070900	0.853200	0.588000
C	C	0.429100	0.353200	0.412000
C	C	0.570900	0.146800	0.912000
C	C	0.929100	0.646800	0.088000
C	C	0.820900	0.338000	0.396800
C	C	0.179100	0.162000	0.896800
C	C	0.320900	0.662000	0.103200
C	C	0.679100	0.838000	0.603200
C	C	0.838000	0.103200	0.179100
C	C	0.662000	0.603200	0.820900
C	C	0.162000	0.396800	0.679100
C	C	0.338000	0.896800	0.320900
C	C	0.603200	0.320900	0.162000
C	C	0.103200	0.679100	0.338000
C	C	0.896800	0.820900	0.838000
C	C	0.396800	0.179100	0.662000
C	C	0.574900	0.536700	0.307200
C	C	0.425100	0.963300	0.807200
C	C	0.925100	0.036700	0.692800
C	C	0.074900	0.463300	0.192800
C	C	0.307200	0.574900	0.536700
C	C	0.807200	0.425100	0.963300
C	C	0.692800	0.925100	0.036700
C	C	0.192800	0.074900	0.463300
C	C	0.536700	0.307200	0.574900
C	C	0.963300	0.807200	0.425100
C	C	0.036700	0.692800	0.925100
C	C	0.463300	0.192800	0.074900
C	C	0.286700	0.824900	0.442800
C	C	0.713300	0.675100	0.942800
C	C	0.786700	0.175100	0.057200
C	C	0.213300	0.324900	0.557200
C	C	0.324900	0.557200	0.213300
C	C	0.175100	0.057200	0.786700
C	C	0.675100	0.942800	0.713300
C	C	0.824900	0.442800	0.286700
C	C	0.057200	0.786700	0.175100
C	C	0.557200	0.213300	0.324900
C	C	0.442800	0.286700	0.824900
C	C	0.942800	0.713300	0.675100
C	C	0.574900	0.036700	0.807200
C	C	0.425100	0.463300	0.307200
C	C	0.925100	0.536700	0.192800
C	C	0.074900	0.963300	0.692800
C	C	0.307200	0.074900	0.036700
C	C	0.807200	0.925100	0.463300
C	C	0.692800	0.425100	0.536700
C	C	0.192800	0.574900	0.963300
C	C	0.536700	0.807200	0.074900
C	C	0.963300	0.307200	0.925100
C	C	0.036700	0.192800	0.425100
C	C	0.463300	0.692800	0.574900
C	C	0.286700	0.324900	0.942800
C	C	0.713300	0.175100	0.442800
C	C	0.786700	0.675100	0.557200
C	C	0.213300	0.824900	0.057200
C	C	0.324900	0.057200	0.713300
C	C	0.175100	0.557200	0.286700
C	C	0.675100	0.442800	0.213300
C	C	0.824900	0.942800	0.786700
C	C	0.057200	0.286700	0.675100
C	C	0.557200	0.713300	0.824900
C	C	0.442800	0.786700	0.324900
C	C	0.942800	0.213300	0.175100
C	C	0.074900	0.536700	0.807200
C	C	0.925100	0.963300	0.307200
C	C	0.425100	0.036700	0.192800
C	C	0.574900	0.463300	0.692800
C	C	0.807200	0.574900	0.036700
C	C	0.307200	0.425100	0.463300
C	C	0.192800	0.925100	0.536700
C	C	0.692800	0.074900	0.963300
C	C	0.036700	0.307200	0.074900
C	C	0.463300	0.807200	0.925100
C	C	0.536700	0.692800	0.425100
C	C	0.963300	0.192800	0.574900
C	C	0.786700	0.824900	0.942800
C	C	0.213300	0.675100	0.442800
C	C	0.286700	0.175100	0.557200
C	C	0.713300	0.324900	0.057200
C	C	0.824900	0.557200	0.713300
C	C	0.675100	0.057200	0.286700
C	C	0.175100	0.942800	0.213300
C	C	0.324900	0.442800	0.786700
C	C	0.557200	0.786700	0.675100
C	C	0.057200	0.213300	0.824900
C	C	0.942800	0.286700	0.324900
C	C	0.442800	0.713300	0.175100
C	C	0.074900	0.036700	0.307200
C	C	0.925100	0.463300	0.807200
C	C	0.425100	0.536700	0.692800
C	C	0.574900	0.963300	0.192800
C	C	0.807200	0.074900	0.536700
C	C	0.307200	0.925100	0.963300
C	C	0.192800	0.425100	0.036700
C	C	0.692800	0.574900	0.463300
C	C	0.036700	0.807200	0.574900
C	C	0.463300	0.307200	0.425100
C	C	0.536700	0.192800	0.925100
C	C	0.963300	0.692800	0.074900
C	C	0.786700	0.324900	0.442800
C	C	0.213300	0.175100	0.942800
C	C	0.286700	0.675100	0.057200
C	C	0.713300	0.824900	0.557200
C	C	0.824900	0.057200	0.213300
C	C	0.675100	0.557200	0.786700
C	C	0.175100	0.442800	0.713300
C	C	0.324900	0.942800	0.286700
C	C	0.557200	0.286700	0.175100
C	C	0.057200	0.713300	0.324900
C	C	0.942800	0.786700	0.824900
C	C	0.442800	0.213300	0.675100
H	H	0.596300	0.506900	0.300200
H	H	0.403700	0.993100	0.800200
H	H	0.903700	0.006900	0.699800
H	H	0.096300	0.493100	0.199800
H	H	0.300200	0.596300	0.506900
H	H	0.800200	0.403700	0.993100
H	H	0.699800	0.903700	0.006900
H	H	0.199800	0.096300	0.493100
H	H	0.506900	0.300200	0.596300
H	H	0.993100	0.800200	0.403700
H	H	0.006900	0.699800	0.903700
H	H	0.493100	0.199800	0.096300
H	H	0.256900	0.846300	0.449800
H	H	0.743100	0.653700	0.949800
H	H	0.756900	0.153700	0.050200
H	H	0.243100	0.346300	0.550200
H	H	0.346300	0.550200	0.243100
H	H	0.153700	0.050200	0.756900
H	H	0.653700	0.949800	0.743100
H	H	0.846300	0.449800	0.256900
H	H	0.050200	0.756900	0.153700
H	H	0.550200	0.243100	0.346300
H	H	0.449800	0.256900	0.846300
H	H	0.949800	0.743100	0.653700
H	H	0.596300	0.006900	0.800200
H	H	0.403700	0.493100	0.300200
H	H	0.903700	0.506900	0.199800
H	H	0.096300	0.993100	0.699800
H	H	0.300200	0.096300	0.006900
H	H	0.800200	0.903700	0.493100
H	H	0.699800	0.403700	0.506900
H	H	0.199800	0.596300	0.993100
H	H	0.506900	0.800200	0.096300
H	H	0.993100	0.300200	0.903700
H	H	0.006900	0.199800	0.403700
H	H	0.493100	0.699800	0.596300
H	H	0.256900	0.346300	0.949800
H	H	0.743100	0.153700	0.449800
H	H	0.756900	0.653700	0.550200
H	H	0.243100	0.846300	0.050200
H	H	0.346300	0.050200	0.743100
H	H	0.153700	0.550200	0.256900
H	H	0.653700	0.449800	0.243100
H	H	0.846300	0.949800	0.756900
H	H	0.050200	0.256900	0.653700
H	H	0.550200	0.743100	0.846300
H	H	0.449800	0.756900	0.346300
H	H	0.949800	0.243100	0.153700
H	H	0.096300	0.506900	0.800200
H	H	0.903700	0.993100	0.300200
H	H	0.403700	0.006900	0.199800
H	H	0.596300	0.493100	0.699800
H	H	0.800200	0.596300	0.006900
H	H	0.300200	0.403700	0.493100
H	H	0.199800	0.903700	0.506900
H	H	0.699800	0.096300	0.993100
H	H	0.006900	0.300200	0.096300
H	H	0.493100	0.800200	0.903700
H	H	0.506900	0.699800	0.403700
H	H	0.993100	0.199800	0.596300
H	H	0.756900	0.846300	0.949800
H	H	0.243100	0.653700	0.449800
H	H	0.256900	0.153700	0.550200
H	H	0.743100	0.346300	0.050200
H	H	0.846300	0.550200	0.743100
H	H	0.653700	0.050200	0.256900
H	H	0.153700	0.949800	0.243100
H	H	0.346300	0.449800	0.756900
H	H	0.550200	0.756900	0.653700
H	H	0.050200	0.243100	0.846300
H	H	0.949800	0.256900	0.346300
H	H	0.449800	0.743100	0.153700
H	H	0.096300	0.006900	0.300200
H	H	0.903700	0.493100	0.800200
H	H	0.403700	0.506900	0.699800
H	H	0.596300	0.993100	0.199800
H	H	0.800200	0.096300	0.506900
H	H	0.300200	0.903700	0.993100
H	H	0.199800	0.403700	0.006900
H	H	0.699800	0.596300	0.493100
H	H	0.006900	0.800200	0.596300
H	H	0.493100	0.300200	0.403700
H	H	0.506900	0.199800	0.903700
H	H	0.993100	0.699800	0.096300
H	H	0.756900	0.346300	0.449800
H	H	0.243100	0.153700	0.949800
H	H	0.256900	0.653700	0.050200
H	H	0.743100	0.846300	0.550200
H	H	0.846300	0.050200	0.243100
H	H	0.653700	0.550200	0.756900
H	H	0.153700	0.449800	0.743100
H	H	0.346300	0.949800	0.256900
H	H	0.550200	0.256900	0.153700
H	H	0.050200	0.743100	0.346300
H	H	0.949800	0.756900	0.846300
H	H	0.449800	0.243100	0.653700
C	C	0.527600	0.511800	0.231200
C	C	0.472400	0.988200	0.731200
C	C	0.972400	0.011800	0.768800
C	C	0.027600	0.488200	0.268800
C	C	0.231200	0.527600	0.511800
C	C	0.731200	0.472400	0.988200
C	C	0.768800	0.972400	0.011800
C	C	0.268800	0.027600	0.488200
C	C	0.511800	0.231200	0.527600
C	C	0.988200	0.731200	0.472400
C	C	0.011800	0.768800	0.972400
C	C	0.488200	0.268800	0.027600
C	C	0.261800	0.777600	0.518800
C	C	0.738200	0.722400	0.018800
C	C	0.761800	0.222400	0.981200
C	C	0.238200	0.277600	0.481200
C	C	0.277600	0.481200	0.238200
C	C	0.222400	0.981200	0.761800
C	C	0.722400	0.018800	0.738200
C	C	0.777600	0.518800	0.261800
C	C	0.981200	0.761800	0.222400
C	C	0.481200	0.238200	0.277600
C	C	0.518800	0.261800	0.777600
C	C	0.018800	0.738200	0.722400
C	C	0.527600	0.011800	0.731200
C	C	0.472400	0.488200	0.231200
C	C	0.972400	0.511800	0.268800
C	C	0.027600	0.988200	0.768800
C	C	0.231200	0.027600	0.011800
C	C	0.731200	0.972400	0.488200
C	C	0.768800	0.472400	0.511800
C	C	0.268800	0.527600	0.988200
C	C	0.511800	0.731200	0.027600
C	C	0.988200	0.231200	0.972400
C	C	0.011800	0.268800	0.472400
C	C	0.488200	0.768800	0.527600
C	C	0.261800	0.277600	0.018800
C	C	0.738200	0.222400	0.518800
C	C	0.761800	0.722400	0.481200
C	C	0.238200	0.777600	0.981200
C	C	0.277600	0.981200	0.738200
C	C	0.222400	0.481200	0.261800
C	C	0.722400	0.518800	0.238200
C	C	0.777600	0.018800	0.761800
C	C	0.981200	0.261800	0.722400
C	C	0.481200	0.738200	0.777600
C	C	0.518800	0.761800	0.277600
C	C	0.018800	0.238200	0.222400
C	C	0.027600	0.511800	0.731200
C	C	0.972400	0.988200	0.231200
C	C	0.472400	0.011800	0.268800
C	C	0.527600	0.488200	0.768800
C	C	0.731200	0.527600	0.011800
C	C	0.231200	0.472400	0.488200
C	C	0.268800	0.972400	0.511800
C	C	0.768800	0.027600	0.988200
C	C	0.011800	0.231200	0.027600
C	C	0.488200	0.731200	0.972400
C	C	0.511800	0.768800	0.472400
C	C	0.988200	0.268800	0.527600
C	C	0.761800	0.777600	0.018800
C	C	0.238200	0.722400	0.518800
C	C	0.261800	0.222400	0.481200
C	C	0.738200	0.277600	0.981200
C	C	0.777600	0.481200	0.738200
C	C	0.722400	0.981200	0.261800
C	C	0.222400	0.018800	0.238200
C	C	0.277600	0.518800	0.761800
C	C	0.481200	0.761800	0.722400
C	C	0.981200	0.238200	0.777600
C	C	0.018800	0.261800	0.277600
C	C	0.518800	0.738200	0.222400
C	C	0.027600	0.011800	0.231200
C	C	0.972400	0.488200	0.731200
C	C	0.472400	0.511800	0.768800
C	C	0.527600	0.988200	0.268800
C	C	0.731200	0.027600	0.511800
C	C	0.231200	0.972400	0.988200
C	C	0.268800	0.472400	0.011800
C	C	0.768800	0.527600	0.488200
C	C	0.011800	0.731200	0.527600
C	C	0.488200	0.231200	0.472400
C	C	0.511800	0.268800	0.972400
C	C	0.988200	0.768800	0.027600
C	C	0.761800	0.277600	0.518800
C	C	0.238200	0.222400	0.018800
C	C	0.261800	0.722400	0.981200
C	C	0.738200	0.777600	0.481200
C	C	0.777600	0.981200	0.238200
C	C	0.722400	0.481200	0.761800
C	C	0.222400	0.518800	0.738200
C	C	0.277600	0.018800	0.261800
C	C	0.481200	0.261800	0.222400
C	C	0.981200	0.738200	0.277600
C	C	0.018800	0.761800	0.777600
C	C	0.518800	0.238200	0.722400
H	H	0.553700	0.482400	0.232900
H	H	0.446300	0.017600	0.732900
H	H	0.946300	0.982400	0.767100
H	H	0.053700	0.517600	0.267100
H	H	0.232900	0.553700	0.482400
H	H	0.732900	0.446300	0.017600
H	H	0.767100	0.946300	0.982400
H	H	0.267100	0.053700	0.517600
H	H	0.482400	0.232900	0.553700
H	H	0.017600	0.732900	0.446300
H	H	0.982400	0.767100	0.946300
H	H	0.517600	0.267100	0.053700
H	H	0.232400	0.803700	0.517100
H	H	0.767600	0.696300	0.017100
H	H	0.732400	0.196300	0.982900
H	H	0.267600	0.303700	0.482900
H	H	0.303700	0.482900	0.267600
H	H	0.196300	0.982900	0.732400
H	H	0.696300	0.017100	0.767600
H	H	0.803700	0.517100	0.232400
H	H	0.982900	0.732400	0.196300
H	H	0.482900	0.267600	0.303700
H	H	0.517100	0.232400	0.803700
H	H	0.017100	0.767600	0.696300
H	H	0.553700	0.982400	0.732900
H	H	0.446300	0.517600	0.232900
H	H	0.946300	0.482400	0.267100
H	H	0.053700	0.017600	0.767100
H	H	0.232900	0.053700	0.982400
H	H	0.732900	0.946300	0.517600
H	H	0.767100	0.446300	0.482400
H	H	0.267100	0.553700	0.017600
H	H	0.482400	0.732900	0.053700
H	H	0.017600	0.232900	0.946300
H	H	0.982400	0.267100	0.446300
H	H	0.517600	0.767100	0.553700
H	H	0.232400	0.303700	0.017100
H	H	0.767600	0.196300	0.517100
H	H	0.732400	0.696300	0.482900
H	H	0.267600	0.803700	0.982900
H	H	0.303700	0.982900	0.767600
H	H	0.196300	0.482900	0.232400
H	H	0.696300	0.517100	0.267600
H	H	0.803700	0.017100	0.732400
H	H	0.982900	0.232400	0.696300
H	H	0.482900	0.767600	0.803700
H	H	0.517100	0.732400	0.303700
H	H	0.017100	0.267600	0.196300
H	H	0.053700	0.482400	0.732900
H	H	0.946300	0.017600	0.232900
H	H	0.446300	0.982400	0.267100
H	H	0.553700	0.517600	0.767100
H	H	0.732900	0.553700	0.982400
H	H	0.232900	0.446300	0.517600
H	H	0.267100	0.946300	0.482400
H	H	0.767100	0.053700	0.017600
H	H	0.982400	0.232900	0.053700
H	H	0.517600	0.732900	0.946300
H	H	0.482400	0.767100	0.446300
H	H	0.017600	0.267100	0.553700
H	H	0.732400	0.803700	0.017100
H	H	0.267600	0.696300	0.517100
H	H	0.232400	0.196300	0.482900
H	H	0.767600	0.303700	0.982900
H	H	0.803700	0.482900	0.767600
H	H	0.696300	0.982900	0.232400
H	H	0.196300	0.017100	0.267600
H	H	0.303700	0.517100	0.732400
H	H	0.482900	0.732400	0.696300
H	H	0.982900	0.267600	0.803700
H	H	0.017100	0.232400	0.303700
H	H	0.517100	0.767600	0.196300
H	H	0.053700	0.982400	0.232900
H	H	0.946300	0.517600	0.732900
H	H	0.446300	0.482400	0.767100
H	H	0.553700	0.017600	0.267100
H	H	0.732900	0.053700	0.482400
H	H	0.232900	0.946300	0.017600
H	H	0.267100	0.446300	0.982400
H	H	0.767100	0.553700	0.517600
H	H	0.982400	0.732900	0.553700
H	H	0.517600	0.232900	0.446300
H	H	0.482400	0.267100	0.946300
H	H	0.017600	0.767100	0.053700
H	H	0.732400	0.303700	0.517100
H	H	0.267600	0.196300	0.017100
H	H	0.232400	0.696300	0.982900
H	H	0.767600	0.803700	0.482900
H	H	0.803700	0.982900	0.267600
H	H	0.696300	0.482900	0.732400
H	H	0.196300	0.517100	0.767600
H	H	0.303700	0.017100	0.232400
H	H	0.482900	0.232400	0.196300
H	H	0.982900	0.767600	0.303700
H	H	0.017100	0.732400	0.803700
H	H	0.517100	0.267600	0.696300
C	C	0.537000	0.542900	0.179700
C	C	0.463000	0.957100	0.679700
C	C	0.963000	0.042900	0.820300
C	C	0.037000	0.457100	0.320300
C	C	0.179700	0.537000	0.542900
C	C	0.679700	0.463000	0.957100
C	C	0.820300	0.963000	0.042900
C	C	0.320300	0.037000	0.457100
C	C	0.542900	0.179700	0.537000
C	C	0.957100	0.679700	0.463000
C	C	0.042900	0.820300	0.963000
C	C	0.457100	0.320300	0.037000
C	C	0.292900	0.787000	0.570300
C	C	0.707100	0.713000	0.070300
C	C	0.792900	0.213000	0.929700
C	C	0.207100	0.287000	0.429700
C	C	0.287000	0.429700	0.207100
C	C	0.213000	0.929700	0.792900
C	C	0.713000	0.070300	0.707100
C	C	0.787000	0.570300	0.292900
C	C	0.929700	0.792900	0.213000
C	C	0.429700	0.207100	0.287000
C	C	0.570300	0.292900	0.787000
C	C	0.070300	0.707100	0.713000
C	C	0.537000	0.042900	0.679700
C	C	0.463000	0.457100	0.179700
C	C	0.963000	0.542900	0.320300
C	C	0.037000	0.957100	0.820300
C	C	0.179700	0.037000	0.042900
C	C	0.679700	0.963000	0.457100
C	C	0.820300	0.463000	0.542900
C	C	0.320300	0.537000	0.957100
C	C	0.542900	0.679700	0.037000
C	C	0.957100	0.179700	0.963000
C	C	0.042900	0.320300	0.463000
C	C	0.457100	0.820300	0.537000
C	C	0.292900	0.287000	0.070300
C	C	0.707100	0.213000	0.570300
C	C	0.792900	0.713000	0.429700
C	C	0.207100	0.787000	0.929700
C	C	0.287000	0.929700	0.707100
C	C	0.213000	0.429700	0.292900
C	C	0.713000	0.570300	0.207100
C	C	0.787000	0.070300	0.792900
C	C	0.929700	0.292900	0.713000
C	C	0.429700	0.707100	0.787000
C	C	0.570300	0.792900	0.287000
C	C	0.070300	0.207100	0.213000
C	C	0.037000	0.542900	0.679700
C	C	0.963000	0.957100	0.179700
C	C	0.463000	0.042900	0.320300
C	C	0.537000	0.457100	0.820300
C	C	0.679700	0.537000	0.042900
C	C	0.179700	0.463000	0.457100
C	C	0.320300	0.963000	0.542900
C	C	0.820300	0.037000	0.957100
C	C	0.042900	0.179700	0.037000
C	C	0.457100	0.679700	0.963000
C	C	0.542900	0.820300	0.463000
C	C	0.957100	0.320300	0.537000
C	C	0.792900	0.787000	0.070300
C	C	0.207100	0.713000	0.570300
C	C	0.292900	0.213000	0.429700
C	C	0.707100	0.287000	0.929700
C	C	0.787000	0.429700	0.707100
C	C	0.713000	0.929700	0.292900
C	C	0.213000	0.070300	0.207100
C	C	0.287000	0.570300	0.792900
C	C	0.429700	0.792900	0.713000
C	C	0.929700	0.207100	0.787000
C	C	0.070300	0.292900	0.287000
C	C	0.570300	0.707100	0.213000
C	C	0.037000	0.042900	0.179700
C	C	0.963000	0.457100	0.679700
C	C	0.463000	0.542900	0.820300
C	C	0.537000	0.957100	0.320300
C	C	0.679700	0.037000	0.542900
C	C	0.179700	0.963000	0.957100
C	C	0.320300	0.463000	0.042900
C	C	0.820300	0.537000	0.457100
C	C	0.042900	0.679700	0.537000
C	C	0.457100	0.179700	0.463000
C	C	0.542900	0.320300	0.963000
C	C	0.957100	0.820300	0.037000
C	C	0.792900	0.287000	0.570300
C	C	0.207100	0.213000	0.070300
C	C	0.292900	0.713000	0.929700
C	C	0.707100	0.787000	0.429700
C	C	0.787000	0.929700	0.207100
C	C	0.713000	0.429700	0.792900
C	C	0.213000	0.570300	0.707100
C	C	0.287000	0.070300	0.292900
C	C	0.429700	0.292900	0.213000
C	C	0.929700	0.707100	0.287000
C	C	0.070300	0.792900	0.787000
C	C	0.570300	0.207100	0.713000
H	H	0.574200	0.554300	0.178600
H	H	0.425800	0.945700	0.678600
H	H	0.925800	0.054300	0.821400
H	H	0.074200	0.445700	0.321400
H	H	0.178600	0.574200	0.554300
H	H	0.678600	0.425800	0.945700
H	H	0.821400	0.925800	0.054300
H	H	0.321400	0.074200	0.445700
H	H	0.554300	0.178600	0.574200
H	H	0.945700	0.678600	0.425800
H	H	0.054300	0.821400	0.925800
H	H	0.445700	0.321400	0.074200
H	H	0.304300	0.824200	0.571400
H	H	0.695700	0.675800	0.071400
H	H	0.804300	0.175800	0.928600
H	H	0.195700	0.324200	0.428600
H	H	0.324200	0.428600	0.195700
H	H	0.175800	0.928600	0.804300
H	H	0.675800	0.071400	0.695700
H	H	0.824200	0.571400	0.304300
H	H	0.928600	0.804300	0.175800
H	H	0.428600	0.195700	0.324200
H	H	0.571400	0.304300	0.824200
H	H	0.071400	0.695700	0.675800
H	H	0.574200	0.054300	0.678600
H	H	0.425800	0.445700	0.178600
H	H	0.925800	0.554300	0.321400
H	H	0.074200	0.945700	0.821400
H	H	0.178600	0.074200	0.054300
H	H	0.678600	0.925800	0.445700
H	H	0.821400	0.425800	0.554300
H	H	0.321400	0.574200	0.945700
H	H	0.554300	0.678600	0.074200
H	H	0.945700	0.178600	0.925800
H	H	0.054300	0.321400	0.425800
H	H	0.445700	0.821400	0.574200
H	H	0.304300	0.324200	0.071400
H	H	0.695700	0.175800	0.571400
H	H	0.804300	0.675800	0.428600
H	H	0.195700	0.824200	0.928600
H	H	0.324200	0.928600	0.695700
H	H	0.175800	0.428600	0.304300
H	H	0.675800	0.571400	0.195700
H	H	0.824200	0.071400	0.804300
H	H	0.928600	0.304300	0.675800
H	H	0.428600	0.695700	0.824200
H	H	0.571400	0.804300	0.324200
H	H	0.071400	0.195700	0.175800
H	H	0.074200	0.554300	0.678600
H	H	0.925800	0.945700	0.178600
H	H	0.425800	0.054300	0.321400
H	H	0.574200	0.445700	0.821400
H	H	0.678600	0.574200	0.054300
H	H	0.178600	0.425800	0.445700
H	H	0.321400	0.925800	0.554300
H	H	0.821400	0.074200	0.945700
H	H	0.054300	0.178600	0.074200
H	H	0.445700	0.678600	0.925800
H	H	0.554300	0.821400	0.425800
H	H	0.945700	0.321400	0.574200
H	H	0.804300	0.824200	0.071400
H	H	0.195700	0.675800	0.571400
H	H	0.304300	0.175800	0.428600
H	H	0.695700	0.324200	0.928600
H	H	0.824200	0.428600	0.695700
H	H	0.675800	0.928600	0.304300
H	H	0.175800	0.071400	0.195700
H	H	0.324200	0.571400	0.804300
H	H	0.428600	0.804300	0.675800
H	H	0.928600	0.195700	0.824200
H	H	0.071400	0.304300	0.324200
H	H	0.571400	0.695700	0.175800
H	H	0.074200	0.054300	0.178600
H	H	0.925800	0.445700	0.678600
H	H	0.425800	0.554300	0.821400
H	H	0.574200	0.945700	0.321400
H	H	0.678600	0.074200	0.554300
H	H	0.178600	0.925800	0.945700
H	H	0.321400	0.425800	0.054300
H	H	0.821400	0.574200	0.445700
H	H	0.054300	0.678600	0.574200
H	H	0.445700	0.178600	0.425800
H	H	0.554300	0.321400	0.925800
H	H	0.945700	0.821400	0.074200
H	H	0.804300	0.324200	0.571400
H	H	0.195700	0.175800	0.071400
H	H	0.304300	0.675800	0.928600
H	H	0.695700	0.824200	0.428600
H	H	0.824200	0.928600	0.195700
H	H	0.675800	0.428600	0.804300
H	H	0.175800	0.571400	0.695700
H	H	0.324200	0.071400	0.304300
H	H	0.428600	0.304300	0.175800
H	H	0.928600	0.695700	0.324200
H	H	0.071400	0.804300	0.824200
H	H	0.571400	0.195700	0.675800
H	H	0.514900	0.574900	0.180100
H	H	0.485100	0.925100	0.680100
H	H	0.985100	0.074900	0.819900
H	H	0.014900	0.425100	0.319900
H	H	0.180100	0.514900	0.574900
H	H	0.680100	0.485100	0.925100
H	H	0.819900	0.985100	0.074900
H	H	0.319900	0.014900	0.425100
H	H	0.574900	0.180100	0.514900
H	H	0.925100	0.680100	0.485100
H	H	0.074900	0.819900	0.985100
H	H	0.425100	0.319900	0.014900
H	H	0.324900	0.764900	0.569900
H	H	0.675100	0.735100	0.069900
H	H	0.824900	0.235100	0.930100
H	H	0.175100	0.264900	0.430100
H	H	0.264900	0.430100	0.175100
H	H	0.235100	0.930100	0.824900
H	H	0.735100	0.069900	0.675100
H	H	0.764900	0.569900	0.324900
H	H	0.930100	0.824900	0.235100
H	H	0.430100	0.175100	0.264900
H	H	0.569900	0.324900	0.764900
H	H	0.069900	0.675100	0.735100
H	H	0.514900	0.074900	0.680100
H	H	0.485100	0.425100	0.180100
H	H	0.985100	0.574900	0.319900
H	H	0.014900	0.925100	0.819900
H	H	0.180100	0.014900	0.074900
H	H	0.680100	0.985100	0.425100
H	H	0.819900	0.485100	0.574900
H	H	0.319900	0.514900	0.925100
H	H	0.574900	0.680100	0.014900
H	H	0.925100	0.180100	0.985100
H	H	0.074900	0.319900	0.485100
H	H	0.425100	0.819900	0.514900
H	H	0.324900	0.264900	0.069900
H	H	0.675100	0.235100	0.569900
H	H	0.824900	0.735100	0.430100
H	H	0.175100	0.764900	0.930100
H	H	0.264900	0.930100	0.675100
H	H	0.235100	0.430100	0.324900
H	H	0.735100	0.569900	0.175100
H	H	0.764900	0.069900	0.824900
H	H	0.930100	0.324900	0.735100
H	H	0.430100	0.675100	0.764900
H	H	0.569900	0.824900	0.264900
H	H	0.069900	0.175100	0.235100
H	H	0.014900	0.574900	0.680100
H	H	0.985100	0.925100	0.180100
H	H	0.485100	0.074900	0.319900
H	H	0.514900	0.425100	0.819900
H	H	0.680100	0.514900	0.074900
H	H	0.180100	0.485100	0.425100
H	H	0.319900	0.985100	0.574900
H	H	0.819900	0.014900	0.925100
H	H	0.074900	0.180100	0.014900
H	H	0.425100	0.680100	0.985100
H	H	0.574900	0.819900	0.485100
H	H	0.925100	0.319900	0.514900
H	H	0.824900	0.764900	0.069900
H	H	0.175100	0.735100	0.569900
H	H	0.324900	0.235100	0.430100
H	H	0.675100	0.264900	0.930100
H	H	0.764900	0.430100	0.675100
H	H	0.735100	0.930100	0.324900
H	H	0.235100	0.069900	0.175100
H	H	0.264900	0.569900	0.824900
H	H	0.430100	0.824900	0.735100
H	H	0.930100	0.175100	0.764900
H	H	0.069900	0.324900	0.264900
H	H	0.569900	0.675100	0.235100
H	H	0.014900	0.074900	0.180100
H	H	0.985100	0.425100	0.680100
H	H	0.485100	0.574900	0.819900
H	H	0.514900	0.925100	0.319900
H	H	0.680100	0.014900	0.574900
H	H	0.180100	0.985100	0.925100
H	H	0.319900	0.485100	0.074900
H	H	0.819900	0.514900	0.425100
H	H	0.074900	0.680100	0.514900
H	H	0.425100	0.180100	0.485100
H	H	0.574900	0.319900	0.985100
H	H	0.925100	0.819900	0.014900
H	H	0.824900	0.264900	0.569900
H	H	0.175100	0.235100	0.069900
H	H	0.324900	0.735100	0.930100
H	H	0.675100	0.764900	0.430100
H	H	0.764900	0.930100	0.175100
H	H	0.735100	0.430100	0.824900
H	H	0.235100	0.569900	0.675100
H	H	0.264900	0.069900	0.324900
H	H	0.430100	0.324900	0.235100
H	H	0.930100	0.675100	0.264900
H	H	0.069900	0.824900	0.764900
H	H	0.569900	0.175100	0.735100
C	C	0.525000	0.511900	0.130300
C	C	0.475000	0.988100	0.630300
C	C	0.975000	0.011900	0.869700
C	C	0.025000	0.488100	0.369700
C	C	0.130300	0.525000	0.511900
C	C	0.630300	0.475000	0.988100
C	C	0.869700	0.975000	0.011900
C	C	0.369700	0.025000	0.488100
C	C	0.511900	0.130300	0.525000
C	C	0.988100	0.630300	0.475000
C	C	0.011900	0.869700	0.975000
C	C	0.488100	0.369700	0.025000
C	C	0.261900	0.775000	0.619700
C	C	0.738100	0.725000	0.119700
C	C	0.761900	0.225000	0.880300
C	C	0.238100	0.275000	0.380300
C	C	0.275000	0.380300	0.238100
C	C	0.225000	0.880300	0.761900
C	C	0.725000	0.119700	0.738100
C	C	0.775000	0.619700	0.261900
C	C	0.880300	0.761900	0.225000
C	C	0.380300	0.238100	0.275000
C	C	0.619700	0.261900	0.775000
C	C	0.119700	0.738100	0.725000
C	C	0.525000	0.011900	0.630300
C	C	0.475000	0.488100	0.130300
C	C	0.975000	0.511900	0.369700
C	C	0.025000	0.988100	0.869700
C	C	0.130300	0.025000	0.011900
C	C	0.630300	0.975000	0.488100
C	C	0.869700	0.475000	0.511900
C	C	0.369700	0.525000	0.988100
C	C	0.511900	0.630300	0.025000
C	C	0.988100	0.130300	0.975000
C	C	0.011900	0.369700	0.475000
C	C	0.488100	0.869700	0.525000
C	C	0.261900	0.275000	0.119700
C	C	0.738100	0.225000	0.619700
C	C	0.761900	0.725000	0.380300
C	C	0.238100	0.775000	0.880300
C	C	0.275000	0.880300	0.738100
C	C	0.225000	0.380300	0.261900
C	C	0.725000	0.619700	0.238100
C	C	0.775000	0.119700	0.761900
C	C	0.880300	0.261900	0.725000
C	C	0.380300	0.738100	0.775000
C	C	0.619700	0.761900	0.275000
C	C	0.119700	0.238100	0.225000
C	C	0.025000	0.511900	0.630300
C	C	0.975000	0.988100	0.130300
C	C	0.475000	0.011900	0.369700
C	C	0.525000	0.488100	0.869700
C	C	0.630300	0.525000	0.011900
C	C	0.130300	0.475000	0.488100
C	C	0.369700	0.975000	0.511900
C	C	0.869700	0.025000	0.988100
C	C	0.011900	0.130300	0.025000
C	C	0.488100	0.630300	0.975000
C	C	0.511900	0.869700	0.475000
C	C	0.988100	0.369700	0.525000
C	C	0.761900	0.775000	0.119700
C	C	0.238100	0.725000	0.619700
C	C	0.261900	0.225000	0.380300
C	C	0.738100	0.275000	0.880300
C	C	0.775000	0.380300	0.738100
C	C	0.725000	0.880300	0.261900
C	C	0.225000	0.119700	0.238100
C	C	0.275000	0.619700	0.761900
C	C	0.380300	0.761900	0.725000
C	C	0.880300	0.238100	0.775000
C	C	0.119700	0.261900	0.275000
C	C	0.619700	0.738100	0.225000
C	C	0.025000	0.011900	0.130300
C	C	0.975000	0.488100	0.630300
C	C	0.475000	0.511900	0.869700
C	C	0.525000	0.988100	0.369700
C	C	0.630300	0.025000	0.511900
C	C	0.130300	0.975000	0.988100
C	C	0.369700	0.475000	0.011900
C	C	0.869700	0.525000	0.488100
C	C	0.011900	0.630300	0.525000
C	C	0.488100	0.130300	0.475000
C	C	0.511900	0.369700	0.975000
C	C	0.988100	0.869700	0.025000
C	C	0.761900	0.275000	0.619700
C	C	0.238100	0.225000	0.119700
C	C	0.261900	0.725000	0.880300
C	C	0.738100	0.775000	0.380300
C	C	0.775000	0.880300	0.238100
C	C	0.725000	0.380300	0.761900
C	C	0.225000	0.619700	0.738100
C	C	0.275000	0.119700	0.261900
C	C	0.380300	0.261900	0.225000
C	C	0.880300	0.738100	0.275000
C	C	0.119700	0.761900	0.775000
C	C	0.619700	0.238100	0.725000
H	H	0.527600	0.535700	0.099600
H	H	0.472400	0.964300	0.599600
H	H	0.972400	0.035700	0.900400
H	H	0.027600	0.464300	0.400400
H	H	0.099600	0.527600	0.535700
H	H	0.599600	0.472400	0.964300
H	H	0.900400	0.972400	0.035700
H	H	0.400400	0.027600	0.464300
H	H	0.535700	0.099600	0.527600
H	H	0.964300	0.599600	0.472400
H	H	0.035700	0.900400	0.972400
H	H	0.464300	0.400400	0.027600
H	H	0.285700	0.777600	0.650400
H	H	0.714300	0.722400	0.150400
H	H	0.785700	0.222400	0.849600
H	H	0.214300	0.277600	0.349600
H	H	0.277600	0.349600	0.214300
H	H	0.222400	0.849600	0.785700
H	H	0.722400	0.150400	0.714300
H	H	0.777600	0.650400	0.285700
H	H	0.849600	0.785700	0.222400
H	H	0.349600	0.214300	0.277600
H	H	0.650400	0.285700	0.777600
H	H	0.150400	0.714300	0.722400
H	H	0.527600	0.035700	0.599600
H	H	0.472400	0.464300	0.099600
H	H	0.972400	0.535700	0.400400
H	H	0.027600	0.964300	0.900400
H	H	0.099600	0.027600	0.035700
H	H	0.599600	0.972400	0.464300
H	H	0.900400	0.472400	0.535700
H	H	0.400400	0.527600	0.964300
H	H	0.535700	0.599600	0.027600
H	H	0.964300	0.099600	0.972400
H	H	0.035700	0.400400	0.472400
H	H	0.464300	0.900400	0.527600
H	H	0.285700	0.277600	0.150400
H	H	0.714300	0.222400	0.650400
H	H	0.785700	0.722400	0.349600
H	H	0.214300	0.777600	0.849600
H	H	0.277600	0.849600	0.714300
H	H	0.222400	0.349600	0.285700
H	H	0.722400	0.650400	0.214300
H	H	0.777600	0.150400	0.785700
H	H	0.849600	0.285700	0.722400
H	H	0.349600	0.714300	0.777600
H	H	0.650400	0.785700	0.277600
H	H	0.150400	0.214300	0.222400
H	H	0.027600	0.535700	0.599600
H	H	0.972400	0.964300	0.099600
H	H	0.472400	0.035700	0.400400
H	H	0.527600	0.464300	0.900400
H	H	0.599600	0.527600	0.035700
H	H	0.099600	0.472400	0.464300
H	H	0.400400	0.972400	0.535700
H	H	0.900400	0.027600	0.964300
H	H	0.035700	0.099600	0.027600
H	H	0.464300	0.599600	0.972400
H	H	0.535700	0.900400	0.472400
H	H	0.964300	0.400400	0.527600
H	H	0.785700	0.777600	0.150400
H	H	0.214300	0.722400	0.650400
H	H	0.285700	0.222400	0.349600
H	H	0.714300	0.277600	0.849600
H	H	0.777600	0.349600	0.714300
H	H	0.722400	0.849600	0.285700
H	H	0.222400	0.150400	0.214300
H	H	0.277600	0.650400	0.785700
H	H	0.349600	0.785700	0.722400
H	H	0.849600	0.214300	0.777600
H	H	0.150400	0.285700	0.277600
H	H	0.650400	0.714300	0.222400
H	H	0.027600	0.035700	0.099600
H	H	0.972400	0.464300	0.599600
H	H	0.472400	0.535700	0.900400
H	H	0.527600	0.964300	0.400400
H	H	0.599600	0.027600	0.535700
H	H	0.099600	0.972400	0.964300
H	H	0.400400	0.472400	0.035700
H	H	0.900400	0.527600	0.464300
H	H	0.035700	0.599600	0.527600
H	H	0.464300	0.099600	0.472400
H	H	0.535700	0.400400	0.972400
H	H	0.964300	0.900400	0.027600
H	H	0.785700	0.277600	0.650400
H	H	0.214300	0.222400	0.150400
H	H	0.285700	0.722400	0.849600
H	H	0.714300	0.777600	0.349600
H	H	0.777600	0.849600	0.214300
H	H	0.722400	0.349600	0.785700
H	H	0.222400	0.650400	0.714300
H	H	0.277600	0.150400	0.285700
H	H	0.349600	0.285700	0.222400
H	H	0.849600	0.714300	0.277600
H	H	0.150400	0.785700	0.777600
H	H	0.650400	0.214300	0.722400
H	H	0.552000	0.484200	0.126000
H	H	0.448000	0.015800	0.626000
H	H	0.948000	0.984200	0.874000
H	H	0.052000	0.515800	0.374000
H	H	0.126000	0.552000	0.484200
H	H	0.626000	0.448000	0.015800
H	H	0.874000	0.948000	0.984200
H	H	0.374000	0.052000	0.515800
H	H	0.484200	0.126000	0.552000
H	H	0.015800	0.626000	0.448000
H	H	0.984200	0.874000	0.948000
H	H	0.515800	0.374000	0.052000
H	H	0.234200	0.802000	0.624000
H	H	0.765800	0.698000	0.124000
H	H	0.734200	0.198000	0.876000
H	H	0.265800	0.302000	0.376000
H	H	0.302000	0.376000	0.265800
H	H	0.198000	0.876000	0.734200
H	H	0.698000	0.124000	0.765800
H	H	0.802000	0.624000	0.234200
H	H	0.876000	0.734200	0.198000
H	H	0.376000	0.265800	0.302000
H	H	0.624000	0.234200	0.802000
H	H	0.124000	0.765800	0.698000
H	H	0.552000	0.984200	0.626000
H	H	0.448000	0.515800	0.126000
H	H	0.948000	0.484200	0.374000
H	H	0.052000	0.015800	0.874000
H	H	0.126000	0.052000	0.984200
H	H	0.626000	0.948000	0.515800
H	H	0.874000	0.448000	0.484200
H	H	0.374000	0.552000	0.015800
H	H	0.484200	0.626000	0.052000
H	H	0.015800	0.126000	0.948000
H	H	0.984200	0.374000	0.448000
H	H	0.515800	0.874000	0.552000
H	H	0.234200	0.302000	0.124000
H	H	0.765800	0.198000	0.624000
H	H	0.734200	0.698000	0.376000
H	H	0.265800	0.802000	0.876000
H	H	0.302000	0.876000	0.765800
H	H	0.198000	0.376000	0.234200
H	H	0.698000	0.624000	0.265800
H	H	0.802000	0.124000	0.734200
H	H	0.876000	0.234200	0.698000
H	H	0.376000	0.765800	0.802000
H	H	0.624000	0.734200	0.302000
H	H	0.124000	0.265800	0.198000
H	H	0.052000	0.484200	0.626000
H	H	0.948000	0.015800	0.126000
H	H	0.448000	0.984200	0.374000
H	H	0.552000	0.515800	0.874000
H	H	0.626000	0.552000	0.984200
H	H	0.126000	0.448000	0.515800
H	H	0.374000	0.948000	0.484200
H	H	0.874000	0.052000	0.015800
H	H	0.984200	0.126000	0.052000
H	H	0.515800	0.626000	0.948000
H	H	0.484200	0.874000	0.448000
H	H	0.015800	0.374000	0.552000
H	H	0.734200	0.802000	0.124000
H	H	0.265800	0.698000	0.624000
H	H	0.234200	0.198000	0.376000
H	H	0.765800	0.302000	0.876000
H	H	0.802000	0.376000	0.765800
H	H	0.698000	0.876000	0.234200
H	H	0.198000	0.124000	0.265800
H	H	0.302000	0.624000	0.734200
H	H	0.376000	0.734200	0.698000
H	H	0.876000	0.265800	0.802000
H	H	0.124000	0.234200	0.302000
H	H	0.624000	0.765800	0.198000
H	H	0.052000	0.984200	0.126000
H	H	0.948000	0.515800	0.626000
H	H	0.448000	0.484200	0.874000
H	H	0.552000	0.015800	0.374000
H	H	0.626000	0.052000	0.484200
H	H	0.126000	0.948000	0.015800
H	H	0.374000	0.448000	0.984200
H	H	0.874000	0.552000	0.515800
H	H	0.984200	0.626000	0.552000
H	H	0.515800	0.126000	0.448000
H	H	0.484200	0.374000	0.948000
H	H	0.015800	0.874000	0.052000
H	H	0.734200	0.302000	0.624000
H	H	0.265800	0.198000	0.124000
H	H	0.234200	0.698000	0.876000
H	H	0.765800	0.802000	0.376000
H	H	0.802000	0.876000	0.265800
H	H	0.698000	0.376000	0.734200
H	H	0.198000	0.624000	0.765800
H	H	0.302000	0.124000	0.234200
H	H	0.376000	0.234200	0.198000
H	H	0.876000	0.765800	0.302000
H	H	0.124000	0.734200	0.802000
H	H	0.624000	0.265800	0.698000
