data_image0
_cell_length_a       31.864
_cell_length_b       31.864
_cell_length_c       12.846
_cell_angle_alpha    90
_cell_angle_beta     90
_cell_angle_gamma    120

_symmetry_space_group_name_H-M    "P 1"
_symmetry_int_tables_number       1

loop_
  _symmetry_equiv_pos_as_xyz
  'x, y, z'

loop_
  _atom_site_label
  _atom_site_occupancy
  _atom_site_fract_x
  _atom_site_fract_y
  _atom_site_fract_z
  _atom_site_thermal_displace_type
  _atom_site_B_iso_or_equiv
  _atom_site_type_symbol
  O1       1.0000 0.04660  0.94410  0.38630  Biso   1.000  O
  O2       1.0000 0.05590  0.10250  0.38630  Biso   1.000  O
  O3       1.0000 0.89750  0.95340  0.38630  Biso   1.000  O
  O4       1.0000 0.71327  0.27743  0.71963  Biso   1.000  O
  O5       1.0000 0.72257  0.43583  0.71963  Biso   1.000  O
  O6       1.0000 0.56417  0.28673  0.71963  Biso   1.000  O
  O7       1.0000 0.37993  0.61077  0.05297  Biso   1.000  O
  O8       1.0000 0.38923  0.76917  0.05297  Biso   1.000  O
  O9       1.0000 0.23083  0.62007  0.05297  Biso   1.000  O
  O10      1.0000 0.95340  0.05590  0.61370  Biso   1.000  O
  O11      1.0000 0.94410  0.89750  0.61370  Biso   1.000  O
  O12      1.0000 0.10250  0.04660  0.61370  Biso   1.000  O
  O13      1.0000 0.62007  0.38923  0.94703  Biso   1.000  O
  O14      1.0000 0.61077  0.23083  0.94703  Biso   1.000  O
  O15      1.0000 0.76917  0.37993  0.94703  Biso   1.000  O
  O16      1.0000 0.28673  0.72257  0.28037  Biso   1.000  O
  O17      1.0000 0.27743  0.56417  0.28037  Biso   1.000  O
  O18      1.0000 0.43583  0.71327  0.28037  Biso   1.000  O
  H1       1.0000 0.04340  0.96390  0.42560  Biso   1.000  H
  H2       1.0000 0.03610  0.07950  0.42560  Biso   1.000  H
  H3       1.0000 0.92050  0.95660  0.42560  Biso   1.000  H
  H4       1.0000 0.71007  0.29723  0.75893  Biso   1.000  H
  H5       1.0000 0.70277  0.41283  0.75893  Biso   1.000  H
  H6       1.0000 0.58717  0.28993  0.75893  Biso   1.000  H
  H7       1.0000 0.37673  0.63057  0.09227  Biso   1.000  H
  H8       1.0000 0.36943  0.74617  0.09227  Biso   1.000  H
  H9       1.0000 0.25383  0.62327  0.09227  Biso   1.000  H
  H10      1.0000 0.95660  0.03610  0.57440  Biso   1.000  H
  H11      1.0000 0.96390  0.92050  0.57440  Biso   1.000  H
  H12      1.0000 0.07950  0.04340  0.57440  Biso   1.000  H
  H13      1.0000 0.62327  0.36943  0.90773  Biso   1.000  H
  H14      1.0000 0.63057  0.25383  0.90773  Biso   1.000  H
  H15      1.0000 0.74617  0.37673  0.90773  Biso   1.000  H
  H16      1.0000 0.28993  0.70277  0.24107  Biso   1.000  H
  H17      1.0000 0.29723  0.58717  0.24107  Biso   1.000  H
  H18      1.0000 0.41283  0.71007  0.24107  Biso   1.000  H
  H19      1.0000 0.06900  0.95970  0.34210  Biso   1.000  H
  H20      1.0000 0.04030  0.10930  0.34210  Biso   1.000  H
  H21      1.0000 0.89070  0.93100  0.34210  Biso   1.000  H
  H22      1.0000 0.73567  0.29303  0.67543  Biso   1.000  H
  H23      1.0000 0.70697  0.44263  0.67543  Biso   1.000  H
  H24      1.0000 0.55737  0.26433  0.67543  Biso   1.000  H
  H25      1.0000 0.40233  0.62637  0.00877  Biso   1.000  H
  H26      1.0000 0.37363  0.77597  0.00877  Biso   1.000  H
  H27      1.0000 0.22403  0.59767  0.00877  Biso   1.000  H
  H28      1.0000 0.93100  0.04030  0.65790  Biso   1.000  H
  H29      1.0000 0.95970  0.89070  0.65790  Biso   1.000  H
  H30      1.0000 0.10930  0.06900  0.65790  Biso   1.000  H
  H31      1.0000 0.59767  0.37363  0.99123  Biso   1.000  H
  H32      1.0000 0.62637  0.22403  0.99123  Biso   1.000  H
  H33      1.0000 0.77597  0.40233  0.99123  Biso   1.000  H
  H34      1.0000 0.26433  0.70697  0.32457  Biso   1.000  H
  H35      1.0000 0.29303  0.55737  0.32457  Biso   1.000  H
  H36      1.0000 0.44263  0.73567  0.32457  Biso   1.000  H
  C1       1.0000 0.03920  0.39411  0.70080  Biso   1.000  C
  C2       1.0000 0.60589  0.64509  0.70080  Biso   1.000  C
  C3       1.0000 0.35491  0.96080  0.70080  Biso   1.000  C
  C4       1.0000 0.70587  0.72744  0.03413  Biso   1.000  C
  C5       1.0000 0.27256  0.97842  0.03413  Biso   1.000  C
  C6       1.0000 0.02158  0.29413  0.03413  Biso   1.000  C
  C7       1.0000 0.37253  0.06078  0.36747  Biso   1.000  C
  C8       1.0000 0.93922  0.31176  0.36747  Biso   1.000  C
  C9       1.0000 0.68824  0.62747  0.36747  Biso   1.000  C
  C10      1.0000 0.96080  0.60589  0.29920  Biso   1.000  C
  C11      1.0000 0.39411  0.35491  0.29920  Biso   1.000  C
  C12      1.0000 0.64509  0.03920  0.29920  Biso   1.000  C
  C13      1.0000 0.62747  0.93922  0.63253  Biso   1.000  C
  C14      1.0000 0.06078  0.68824  0.63253  Biso   1.000  C
  C15      1.0000 0.31176  0.37253  0.63253  Biso   1.000  C
  C16      1.0000 0.29413  0.27256  0.96587  Biso   1.000  C
  C17      1.0000 0.72744  0.02158  0.96587  Biso   1.000  C
  C18      1.0000 0.97842  0.70587  0.96587  Biso   1.000  C
  C19      1.0000 0.05803  0.44679  0.68930  Biso   1.000  C
  C20      1.0000 0.55321  0.61124  0.68930  Biso   1.000  C
  C21      1.0000 0.38876  0.94197  0.68930  Biso   1.000  C
  C22      1.0000 0.72470  0.78012  0.02263  Biso   1.000  C
  C23      1.0000 0.21988  0.94457  0.02263  Biso   1.000  C
  C24      1.0000 0.05543  0.27530  0.02263  Biso   1.000  C
  C25      1.0000 0.39136  0.11346  0.35597  Biso   1.000  C
  C26      1.0000 0.88654  0.27791  0.35597  Biso   1.000  C
  C27      1.0000 0.72209  0.60864  0.35597  Biso   1.000  C
  C28      1.0000 0.94197  0.55321  0.31070  Biso   1.000  C
  C29      1.0000 0.44679  0.38876  0.31070  Biso   1.000  C
  C30      1.0000 0.61124  0.05803  0.31070  Biso   1.000  C
  C31      1.0000 0.60864  0.88654  0.64403  Biso   1.000  C
  C32      1.0000 0.11346  0.72209  0.64403  Biso   1.000  C
  C33      1.0000 0.27791  0.39136  0.64403  Biso   1.000  C
  C34      1.0000 0.27530  0.21988  0.97737  Biso   1.000  C
  C35      1.0000 0.78012  0.05543  0.97737  Biso   1.000  C
  C36      1.0000 0.94457  0.72470  0.97737  Biso   1.000  C
  H37      1.0000 0.05680  0.45930  0.62470  Biso   1.000  H
  H38      1.0000 0.54070  0.59750  0.62470  Biso   1.000  H
  H39      1.0000 0.40250  0.94320  0.62470  Biso   1.000  H
  H40      1.0000 0.72347  0.79263  0.95803  Biso   1.000  H
  H41      1.0000 0.20737  0.93083  0.95803  Biso   1.000  H
  H42      1.0000 0.06917  0.27653  0.95803  Biso   1.000  H
  H43      1.0000 0.39013  0.12597  0.29137  Biso   1.000  H
  H44      1.0000 0.87403  0.26417  0.29137  Biso   1.000  H
  H45      1.0000 0.73583  0.60987  0.29137  Biso   1.000  H
  H46      1.0000 0.94320  0.54070  0.37530  Biso   1.000  H
  H47      1.0000 0.45930  0.40250  0.37530  Biso   1.000  H
  H48      1.0000 0.59750  0.05680  0.37530  Biso   1.000  H
  H49      1.0000 0.60987  0.87403  0.70863  Biso   1.000  H
  H50      1.0000 0.12597  0.73583  0.70863  Biso   1.000  H
  H51      1.0000 0.26417  0.39013  0.70863  Biso   1.000  H
  H52      1.0000 0.27653  0.20737  0.04197  Biso   1.000  H
  H53      1.0000 0.79263  0.06917  0.04197  Biso   1.000  H
  H54      1.0000 0.93083  0.72347  0.04197  Biso   1.000  H
  C37      1.0000 0.07663  0.47641  0.77030  Biso   1.000  C
  C38      1.0000 0.52359  0.60022  0.77030  Biso   1.000  C
  C39      1.0000 0.39978  0.92337  0.77030  Biso   1.000  C
  C40      1.0000 0.74330  0.80974  0.10363  Biso   1.000  C
  C41      1.0000 0.19026  0.93355  0.10363  Biso   1.000  C
  C42      1.0000 0.06645  0.25670  0.10363  Biso   1.000  C
  C43      1.0000 0.40996  0.14308  0.43697  Biso   1.000  C
  C44      1.0000 0.85692  0.26689  0.43697  Biso   1.000  C
  C45      1.0000 0.73311  0.59004  0.43697  Biso   1.000  C
  C46      1.0000 0.92337  0.52359  0.22970  Biso   1.000  C
  C47      1.0000 0.47641  0.39978  0.22970  Biso   1.000  C
  C48      1.0000 0.60022  0.07663  0.22970  Biso   1.000  C
  C49      1.0000 0.59004  0.85692  0.56303  Biso   1.000  C
  C50      1.0000 0.14308  0.73311  0.56303  Biso   1.000  C
  C51      1.0000 0.26689  0.40996  0.56303  Biso   1.000  C
  C52      1.0000 0.25670  0.19026  0.89637  Biso   1.000  C
  C53      1.0000 0.80974  0.06645  0.89637  Biso   1.000  C
  C54      1.0000 0.93355  0.74330  0.89637  Biso   1.000  C
  H55      1.0000 0.07820  0.46180  0.83170  Biso   1.000  H
  H56      1.0000 0.53820  0.61640  0.83170  Biso   1.000  H
  H57      1.0000 0.38360  0.92180  0.83170  Biso   1.000  H
  H58      1.0000 0.74487  0.79513  0.16503  Biso   1.000  H
  H59      1.0000 0.20487  0.94973  0.16503  Biso   1.000  H
  H60      1.0000 0.05027  0.25513  0.16503  Biso   1.000  H
  H61      1.0000 0.41153  0.12847  0.49837  Biso   1.000  H
  H62      1.0000 0.87153  0.28307  0.49837  Biso   1.000  H
  H63      1.0000 0.71693  0.58847  0.49837  Biso   1.000  H
  H64      1.0000 0.92180  0.53820  0.16830  Biso   1.000  H
  H65      1.0000 0.46180  0.38360  0.16830  Biso   1.000  H
  H66      1.0000 0.61640  0.07820  0.16830  Biso   1.000  H
  H67      1.0000 0.58847  0.87153  0.50163  Biso   1.000  H
  H68      1.0000 0.12847  0.71693  0.50163  Biso   1.000  H
  H69      1.0000 0.28307  0.41153  0.50163  Biso   1.000  H
  H70      1.0000 0.25513  0.20487  0.83497  Biso   1.000  H
  H71      1.0000 0.79513  0.05027  0.83497  Biso   1.000  H
  H72      1.0000 0.94973  0.74487  0.83497  Biso   1.000  H
  C55      1.0000 0.09494  0.52847  0.77770  Biso   1.000  C
  C56      1.0000 0.47153  0.56647  0.77770  Biso   1.000  C
  C57      1.0000 0.43353  0.90506  0.77770  Biso   1.000  C
  C58      1.0000 0.76161  0.86180  0.11103  Biso   1.000  C
  C59      1.0000 0.13820  0.89980  0.11103  Biso   1.000  C
  C60      1.0000 0.10020  0.23839  0.11103  Biso   1.000  C
  C61      1.0000 0.42827  0.19514  0.44437  Biso   1.000  C
  C62      1.0000 0.80486  0.23314  0.44437  Biso   1.000  C
  C63      1.0000 0.76686  0.57173  0.44437  Biso   1.000  C
  C64      1.0000 0.90506  0.47153  0.22230  Biso   1.000  C
  C65      1.0000 0.52847  0.43353  0.22230  Biso   1.000  C
  C66      1.0000 0.56647  0.09494  0.22230  Biso   1.000  C
  C67      1.0000 0.57173  0.80486  0.55563  Biso   1.000  C
  C68      1.0000 0.19514  0.76686  0.55563  Biso   1.000  C
  C69      1.0000 0.23314  0.42827  0.55563  Biso   1.000  C
  C70      1.0000 0.23839  0.13820  0.88897  Biso   1.000  C
  C71      1.0000 0.86180  0.10020  0.88897  Biso   1.000  C
  C72      1.0000 0.89980  0.76161  0.88897  Biso   1.000  C
  C73      1.0000 0.09291  0.55734  0.69880  Biso   1.000  C
  C74      1.0000 0.44266  0.53557  0.69880  Biso   1.000  C
  C75      1.0000 0.46443  0.90709  0.69880  Biso   1.000  C
  C76      1.0000 0.75958  0.89067  0.03213  Biso   1.000  C
  C77      1.0000 0.10933  0.86890  0.03213  Biso   1.000  C
  C78      1.0000 0.13110  0.24042  0.03213  Biso   1.000  C
  C79      1.0000 0.42624  0.22401  0.36547  Biso   1.000  C
  C80      1.0000 0.77599  0.20224  0.36547  Biso   1.000  C
  C81      1.0000 0.79776  0.57376  0.36547  Biso   1.000  C
  C82      1.0000 0.90709  0.44266  0.30120  Biso   1.000  C
  C83      1.0000 0.55734  0.46443  0.30120  Biso   1.000  C
  C84      1.0000 0.53557  0.09291  0.30120  Biso   1.000  C
  C85      1.0000 0.57376  0.77599  0.63453  Biso   1.000  C
  C86      1.0000 0.22401  0.79776  0.63453  Biso   1.000  C
  C87      1.0000 0.20224  0.42624  0.63453  Biso   1.000  C
  C88      1.0000 0.24042  0.10933  0.96787  Biso   1.000  C
  C89      1.0000 0.89067  0.13110  0.96787  Biso   1.000  C
  C90      1.0000 0.86890  0.75958  0.96787  Biso   1.000  C
  C91      1.0000 0.10780  0.60591  0.71660  Biso   1.000  C
  C92      1.0000 0.39409  0.50189  0.71660  Biso   1.000  C
  C93      1.0000 0.49811  0.89220  0.71660  Biso   1.000  C
  C94      1.0000 0.77447  0.93924  0.04993  Biso   1.000  C
  C95      1.0000 0.06076  0.83522  0.04993  Biso   1.000  C
  C96      1.0000 0.16478  0.22553  0.04993  Biso   1.000  C
  C97      1.0000 0.44113  0.27258  0.38327  Biso   1.000  C
  C98      1.0000 0.72742  0.16856  0.38327  Biso   1.000  C
  C99      1.0000 0.83144  0.55887  0.38327  Biso   1.000  C
  C100     1.0000 0.89220  0.39409  0.28340  Biso   1.000  C
  C101     1.0000 0.60591  0.49811  0.28340  Biso   1.000  C
  C102     1.0000 0.50189  0.10780  0.28340  Biso   1.000  C
  C103     1.0000 0.55887  0.72742  0.61673  Biso   1.000  C
  C104     1.0000 0.27258  0.83144  0.61673  Biso   1.000  C
  C105     1.0000 0.16856  0.44113  0.61673  Biso   1.000  C
  C106     1.0000 0.22553  0.06076  0.95007  Biso   1.000  C
  C107     1.0000 0.93924  0.16478  0.95007  Biso   1.000  C
  C108     1.0000 0.83522  0.77447  0.95007  Biso   1.000  C
  H73      1.0000 0.10590  0.62470  0.66330  Biso   1.000  H
  H74      1.0000 0.37530  0.48120  0.66330  Biso   1.000  H
  H75      1.0000 0.51880  0.89410  0.66330  Biso   1.000  H
  H76      1.0000 0.77257  0.95803  0.99663  Biso   1.000  H
  H77      1.0000 0.04197  0.81453  0.99663  Biso   1.000  H
  H78      1.0000 0.18547  0.22743  0.99663  Biso   1.000  H
  H79      1.0000 0.43923  0.29137  0.32997  Biso   1.000  H
  H80      1.0000 0.70863  0.14787  0.32997  Biso   1.000  H
  H81      1.0000 0.85213  0.56077  0.32997  Biso   1.000  H
  H82      1.0000 0.89410  0.37530  0.33670  Biso   1.000  H
  H83      1.0000 0.62470  0.51880  0.33670  Biso   1.000  H
  H84      1.0000 0.48120  0.10590  0.33670  Biso   1.000  H
  H85      1.0000 0.56077  0.70863  0.67003  Biso   1.000  H
  H86      1.0000 0.29137  0.85213  0.67003  Biso   1.000  H
  H87      1.0000 0.14787  0.43923  0.67003  Biso   1.000  H
  H88      1.0000 0.22743  0.04197  0.00337  Biso   1.000  H
  H89      1.0000 0.95803  0.18547  0.00337  Biso   1.000  H
  H90      1.0000 0.81453  0.77257  0.00337  Biso   1.000  H
  C109     1.0000 0.12540  0.62630  0.81300  Biso   1.000  C
  C110     1.0000 0.37370  0.49910  0.81300  Biso   1.000  C
  C111     1.0000 0.50090  0.87460  0.81300  Biso   1.000  C
  C112     1.0000 0.79207  0.95963  0.14633  Biso   1.000  C
  C113     1.0000 0.04037  0.83243  0.14633  Biso   1.000  C
  C114     1.0000 0.16757  0.20793  0.14633  Biso   1.000  C
  C115     1.0000 0.45873  0.29297  0.47967  Biso   1.000  C
  C116     1.0000 0.70703  0.16577  0.47967  Biso   1.000  C
  C117     1.0000 0.83423  0.54127  0.47967  Biso   1.000  C
  C118     1.0000 0.87460  0.37370  0.18700  Biso   1.000  C
  C119     1.0000 0.62630  0.50090  0.18700  Biso   1.000  C
  C120     1.0000 0.49910  0.12540  0.18700  Biso   1.000  C
  C121     1.0000 0.54127  0.70703  0.52033  Biso   1.000  C
  C122     1.0000 0.29297  0.83423  0.52033  Biso   1.000  C
  C123     1.0000 0.16577  0.45873  0.52033  Biso   1.000  C
  C124     1.0000 0.20793  0.04037  0.85367  Biso   1.000  C
  C125     1.0000 0.95963  0.16757  0.85367  Biso   1.000  C
  C126     1.0000 0.83243  0.79207  0.85367  Biso   1.000  C
  H91      1.0000 0.13460  0.65860  0.82470  Biso   1.000  H
  H92      1.0000 0.34140  0.47600  0.82470  Biso   1.000  H
  H93      1.0000 0.52400  0.86540  0.82470  Biso   1.000  H
  H94      1.0000 0.80127  0.99193  0.15803  Biso   1.000  H
  H95      1.0000 0.00807  0.80933  0.15803  Biso   1.000  H
  H96      1.0000 0.19067  0.19873  0.15803  Biso   1.000  H
  H97      1.0000 0.46793  0.32527  0.49137  Biso   1.000  H
  H98      1.0000 0.67473  0.14267  0.49137  Biso   1.000  H
  H99      1.0000 0.85733  0.53207  0.49137  Biso   1.000  H
  H100     1.0000 0.86540  0.34140  0.17530  Biso   1.000  H
  H101     1.0000 0.65860  0.52400  0.17530  Biso   1.000  H
  H102     1.0000 0.47600  0.13460  0.17530  Biso   1.000  H
  H103     1.0000 0.53207  0.67473  0.50863  Biso   1.000  H
  H104     1.0000 0.32527  0.85733  0.50863  Biso   1.000  H
  H105     1.0000 0.14267  0.46793  0.50863  Biso   1.000  H
  H106     1.0000 0.19873  0.00807  0.84197  Biso   1.000  H
  H107     1.0000 0.99193  0.19067  0.84197  Biso   1.000  H
  H108     1.0000 0.80933  0.80127  0.84197  Biso   1.000  H
  C127     1.0000 0.12930  0.59950  0.89150  Biso   1.000  C
  C128     1.0000 0.40050  0.52980  0.89150  Biso   1.000  C
  C129     1.0000 0.47020  0.87070  0.89150  Biso   1.000  C
  C130     1.0000 0.79597  0.93283  0.22483  Biso   1.000  C
  C131     1.0000 0.06717  0.86313  0.22483  Biso   1.000  C
  C132     1.0000 0.13687  0.20403  0.22483  Biso   1.000  C
  C133     1.0000 0.46263  0.26617  0.55817  Biso   1.000  C
  C134     1.0000 0.73383  0.19647  0.55817  Biso   1.000  C
  C135     1.0000 0.80353  0.53737  0.55817  Biso   1.000  C
  C136     1.0000 0.87070  0.40050  0.10850  Biso   1.000  C
  C137     1.0000 0.59950  0.47020  0.10850  Biso   1.000  C
  C138     1.0000 0.52980  0.12930  0.10850  Biso   1.000  C
  C139     1.0000 0.53737  0.73383  0.44183  Biso   1.000  C
  C140     1.0000 0.26617  0.80353  0.44183  Biso   1.000  C
  C141     1.0000 0.19647  0.46263  0.44183  Biso   1.000  C
  C142     1.0000 0.20403  0.06717  0.77517  Biso   1.000  C
  C143     1.0000 0.93283  0.13687  0.77517  Biso   1.000  C
  C144     1.0000 0.86313  0.79597  0.77517  Biso   1.000  C
  H109     1.0000 0.14190  0.61350  0.95580  Biso   1.000  H
  H110     1.0000 0.38650  0.52840  0.95580  Biso   1.000  H
  H111     1.0000 0.47160  0.85810  0.95580  Biso   1.000  H
  H112     1.0000 0.80857  0.94683  0.28913  Biso   1.000  H
  H113     1.0000 0.05317  0.86173  0.28913  Biso   1.000  H
  H114     1.0000 0.13827  0.19143  0.28913  Biso   1.000  H
  H115     1.0000 0.47523  0.28017  0.62247  Biso   1.000  H
  H116     1.0000 0.71983  0.19507  0.62247  Biso   1.000  H
  H117     1.0000 0.80493  0.52477  0.62247  Biso   1.000  H
  H118     1.0000 0.85810  0.38650  0.04420  Biso   1.000  H
  H119     1.0000 0.61350  0.47160  0.04420  Biso   1.000  H
  H120     1.0000 0.52840  0.14190  0.04420  Biso   1.000  H
  H121     1.0000 0.52477  0.71983  0.37753  Biso   1.000  H
  H122     1.0000 0.28017  0.80493  0.37753  Biso   1.000  H
  H123     1.0000 0.19507  0.47523  0.37753  Biso   1.000  H
  H124     1.0000 0.19143  0.05317  0.71087  Biso   1.000  H
  H125     1.0000 0.94683  0.13827  0.71087  Biso   1.000  H
  H126     1.0000 0.86173  0.80857  0.71087  Biso   1.000  H
  C145     1.0000 0.11440  0.55110  0.87380  Biso   1.000  C
  C146     1.0000 0.44890  0.56330  0.87380  Biso   1.000  C
  C147     1.0000 0.43670  0.88560  0.87380  Biso   1.000  C
  C148     1.0000 0.78107  0.88443  0.20713  Biso   1.000  C
  C149     1.0000 0.11557  0.89663  0.20713  Biso   1.000  C
  C150     1.0000 0.10337  0.21893  0.20713  Biso   1.000  C
  C151     1.0000 0.44773  0.21777  0.54047  Biso   1.000  C
  C152     1.0000 0.78223  0.22997  0.54047  Biso   1.000  C
  C153     1.0000 0.77003  0.55227  0.54047  Biso   1.000  C
  C154     1.0000 0.88560  0.44890  0.12620  Biso   1.000  C
  C155     1.0000 0.55110  0.43670  0.12620  Biso   1.000  C
  C156     1.0000 0.56330  0.11440  0.12620  Biso   1.000  C
  C157     1.0000 0.55227  0.78223  0.45953  Biso   1.000  C
  C158     1.0000 0.21777  0.77003  0.45953  Biso   1.000  C
  C159     1.0000 0.22997  0.44773  0.45953  Biso   1.000  C
  C160     1.0000 0.21893  0.11557  0.79287  Biso   1.000  C
  C161     1.0000 0.88443  0.10337  0.79287  Biso   1.000  C
  C162     1.0000 0.89663  0.78107  0.79287  Biso   1.000  C
  H127     1.0000 0.11730  0.53300  0.92720  Biso   1.000  H
  H128     1.0000 0.46700  0.58430  0.92720  Biso   1.000  H
  H129     1.0000 0.41570  0.88270  0.92720  Biso   1.000  H
  H130     1.0000 0.78397  0.86633  0.26053  Biso   1.000  H
  H131     1.0000 0.13367  0.91763  0.26053  Biso   1.000  H
  H132     1.0000 0.08237  0.21603  0.26053  Biso   1.000  H
  H133     1.0000 0.45063  0.19967  0.59387  Biso   1.000  H
  H134     1.0000 0.80033  0.25097  0.59387  Biso   1.000  H
  H135     1.0000 0.74903  0.54937  0.59387  Biso   1.000  H
  H136     1.0000 0.88270  0.46700  0.07280  Biso   1.000  H
  H137     1.0000 0.53300  0.41570  0.07280  Biso   1.000  H
  H138     1.0000 0.58430  0.11730  0.07280  Biso   1.000  H
  H139     1.0000 0.54937  0.80033  0.40613  Biso   1.000  H
  H140     1.0000 0.19967  0.74903  0.40613  Biso   1.000  H
  H141     1.0000 0.25097  0.45063  0.40613  Biso   1.000  H
  H142     1.0000 0.21603  0.13367  0.73947  Biso   1.000  H
  H143     1.0000 0.86633  0.08237  0.73947  Biso   1.000  H
  H144     1.0000 0.91763  0.78397  0.73947  Biso   1.000  H
  C163     1.0000 0.09624  0.30752  0.74980  Biso   1.000  C
  C164     1.0000 0.69248  0.78872  0.74980  Biso   1.000  C
  C165     1.0000 0.21128  0.90376  0.74980  Biso   1.000  C
  C166     1.0000 0.76291  0.64085  0.08313  Biso   1.000  C
  C167     1.0000 0.35915  0.12205  0.08313  Biso   1.000  C
  C168     1.0000 0.87795  0.23709  0.08313  Biso   1.000  C
  C169     1.0000 0.42957  0.97419  0.41647  Biso   1.000  C
  C170     1.0000 0.02581  0.45539  0.41647  Biso   1.000  C
  C171     1.0000 0.54461  0.57043  0.41647  Biso   1.000  C
  C172     1.0000 0.90376  0.69248  0.25020  Biso   1.000  C
  C173     1.0000 0.30752  0.21128  0.25020  Biso   1.000  C
  C174     1.0000 0.78872  0.09624  0.25020  Biso   1.000  C
  C175     1.0000 0.57043  0.02581  0.58353  Biso   1.000  C
  C176     1.0000 0.97419  0.54461  0.58353  Biso   1.000  C
  C177     1.0000 0.45539  0.42957  0.58353  Biso   1.000  C
  C178     1.0000 0.23709  0.35915  0.91687  Biso   1.000  C
  C179     1.0000 0.64085  0.87795  0.91687  Biso   1.000  C
  C180     1.0000 0.12205  0.76291  0.91687  Biso   1.000  C
  C181     1.0000 0.13022  0.29237  0.70910  Biso   1.000  C
  C182     1.0000 0.70763  0.83785  0.70910  Biso   1.000  C
  C183     1.0000 0.16215  0.86978  0.70910  Biso   1.000  C
  C184     1.0000 0.79689  0.62570  0.04243  Biso   1.000  C
  C185     1.0000 0.37430  0.17118  0.04243  Biso   1.000  C
  C186     1.0000 0.82882  0.20311  0.04243  Biso   1.000  C
  C187     1.0000 0.46355  0.95904  0.37577  Biso   1.000  C
  C188     1.0000 0.04096  0.50452  0.37577  Biso   1.000  C
  C189     1.0000 0.49548  0.53645  0.37577  Biso   1.000  C
  C190     1.0000 0.86978  0.70763  0.29090  Biso   1.000  C
  C191     1.0000 0.29237  0.16215  0.29090  Biso   1.000  C
  C192     1.0000 0.83785  0.13022  0.29090  Biso   1.000  C
  C193     1.0000 0.53645  0.04096  0.62423  Biso   1.000  C
  C194     1.0000 0.95904  0.49548  0.62423  Biso   1.000  C
  C195     1.0000 0.50452  0.46355  0.62423  Biso   1.000  C
  C196     1.0000 0.20311  0.37430  0.95757  Biso   1.000  C
  C197     1.0000 0.62570  0.82882  0.95757  Biso   1.000  C
  C198     1.0000 0.17118  0.79689  0.95757  Biso   1.000  C
  H145     1.0000 0.16330  0.31380  0.71550  Biso   1.000  H
  H146     1.0000 0.68620  0.84950  0.71550  Biso   1.000  H
  H147     1.0000 0.15050  0.83670  0.71550  Biso   1.000  H
  H148     1.0000 0.82997  0.64713  0.04883  Biso   1.000  H
  H149     1.0000 0.35287  0.18283  0.04883  Biso   1.000  H
  H150     1.0000 0.81717  0.17003  0.04883  Biso   1.000  H
  H151     1.0000 0.49663  0.98047  0.38217  Biso   1.000  H
  H152     1.0000 0.01953  0.51617  0.38217  Biso   1.000  H
  H153     1.0000 0.48383  0.50337  0.38217  Biso   1.000  H
  H154     1.0000 0.83670  0.68620  0.28450  Biso   1.000  H
  H155     1.0000 0.31380  0.15050  0.28450  Biso   1.000  H
  H156     1.0000 0.84950  0.16330  0.28450  Biso   1.000  H
  H157     1.0000 0.50337  0.01953  0.61783  Biso   1.000  H
  H158     1.0000 0.98047  0.48383  0.61783  Biso   1.000  H
  H159     1.0000 0.51617  0.49663  0.61783  Biso   1.000  H
  H160     1.0000 0.17003  0.35287  0.95117  Biso   1.000  H
  H161     1.0000 0.64713  0.81717  0.95117  Biso   1.000  H
  H162     1.0000 0.18283  0.82997  0.95117  Biso   1.000  H
  C199     1.0000 0.11590  0.24987  0.66430  Biso   1.000  C
  C200     1.0000 0.75013  0.86603  0.66430  Biso   1.000  C
  C201     1.0000 0.13397  0.88410  0.66430  Biso   1.000  C
  C202     1.0000 0.78257  0.58320  0.99763  Biso   1.000  C
  C203     1.0000 0.41680  0.19936  0.99763  Biso   1.000  C
  C204     1.0000 0.80064  0.21743  0.99763  Biso   1.000  C
  C205     1.0000 0.44923  0.91654  0.33097  Biso   1.000  C
  C206     1.0000 0.08346  0.53270  0.33097  Biso   1.000  C
  C207     1.0000 0.46730  0.55077  0.33097  Biso   1.000  C
  C208     1.0000 0.88410  0.75013  0.33570  Biso   1.000  C
  C209     1.0000 0.24987  0.13397  0.33570  Biso   1.000  C
  C210     1.0000 0.86603  0.11590  0.33570  Biso   1.000  C
  C211     1.0000 0.55077  0.08346  0.66903  Biso   1.000  C
  C212     1.0000 0.91654  0.46730  0.66903  Biso   1.000  C
  C213     1.0000 0.53270  0.44923  0.66903  Biso   1.000  C
  C214     1.0000 0.21743  0.41680  0.00237  Biso   1.000  C
  C215     1.0000 0.58320  0.80064  0.00237  Biso   1.000  C
  C216     1.0000 0.19936  0.78257  0.00237  Biso   1.000  C
  H163     1.0000 0.08280  0.22890  0.65700  Biso   1.000  H
  H164     1.0000 0.77110  0.85390  0.65700  Biso   1.000  H
  H165     1.0000 0.14610  0.91720  0.65700  Biso   1.000  H
  H166     1.0000 0.74947  0.56223  0.99033  Biso   1.000  H
  H167     1.0000 0.43777  0.18723  0.99033  Biso   1.000  H
  H168     1.0000 0.81277  0.25053  0.99033  Biso   1.000  H
  H169     1.0000 0.41613  0.89557  0.32367  Biso   1.000  H
  H170     1.0000 0.10443  0.52057  0.32367  Biso   1.000  H
  H171     1.0000 0.47943  0.58387  0.32367  Biso   1.000  H
  H172     1.0000 0.91720  0.77110  0.34300  Biso   1.000  H
  H173     1.0000 0.22890  0.14610  0.34300  Biso   1.000  H
  H174     1.0000 0.85390  0.08280  0.34300  Biso   1.000  H
  H175     1.0000 0.58387  0.10443  0.67633  Biso   1.000  H
  H176     1.0000 0.89557  0.47943  0.67633  Biso   1.000  H
  H177     1.0000 0.52057  0.41613  0.67633  Biso   1.000  H
  H178     1.0000 0.25053  0.43777  0.00967  Biso   1.000  H
  H179     1.0000 0.56223  0.81277  0.00967  Biso   1.000  H
  H180     1.0000 0.18723  0.74947  0.00967  Biso   1.000  H
  C217     1.0000 0.14864  0.23357  0.62550  Biso   1.000  C
  C218     1.0000 0.76643  0.91507  0.62550  Biso   1.000  C
  C219     1.0000 0.08493  0.85136  0.62550  Biso   1.000  C
  C220     1.0000 0.81531  0.56690  0.95883  Biso   1.000  C
  C221     1.0000 0.43310  0.24840  0.95883  Biso   1.000  C
  C222     1.0000 0.75160  0.18469  0.95883  Biso   1.000  C
  C223     1.0000 0.48197  0.90024  0.29217  Biso   1.000  C
  C224     1.0000 0.09976  0.58174  0.29217  Biso   1.000  C
  C225     1.0000 0.41826  0.51803  0.29217  Biso   1.000  C
  C226     1.0000 0.85136  0.76643  0.37450  Biso   1.000  C
  C227     1.0000 0.23357  0.08493  0.37450  Biso   1.000  C
  C228     1.0000 0.91507  0.14864  0.37450  Biso   1.000  C
  C229     1.0000 0.51803  0.09976  0.70783  Biso   1.000  C
  C230     1.0000 0.90024  0.41826  0.70783  Biso   1.000  C
  C231     1.0000 0.58174  0.48197  0.70783  Biso   1.000  C
  C232     1.0000 0.18469  0.43310  0.04117  Biso   1.000  C
  C233     1.0000 0.56690  0.75160  0.04117  Biso   1.000  C
  C234     1.0000 0.24840  0.81531  0.04117  Biso   1.000  C
  C235     1.0000 0.13235  0.19592  0.55190  Biso   1.000  C
  C236     1.0000 0.80408  0.93643  0.55190  Biso   1.000  C
  C237     1.0000 0.06357  0.86765  0.55190  Biso   1.000  C
  C238     1.0000 0.79902  0.52925  0.88523  Biso   1.000  C
  C239     1.0000 0.47075  0.26976  0.88523  Biso   1.000  C
  C240     1.0000 0.73024  0.20098  0.88523  Biso   1.000  C
  C241     1.0000 0.46568  0.86259  0.21857  Biso   1.000  C
  C242     1.0000 0.13741  0.60310  0.21857  Biso   1.000  C
  C243     1.0000 0.39690  0.53432  0.21857  Biso   1.000  C
  C244     1.0000 0.86765  0.80408  0.44810  Biso   1.000  C
  C245     1.0000 0.19592  0.06357  0.44810  Biso   1.000  C
  C246     1.0000 0.93643  0.13235  0.44810  Biso   1.000  C
  C247     1.0000 0.53432  0.13741  0.78143  Biso   1.000  C
  C248     1.0000 0.86259  0.39690  0.78143  Biso   1.000  C
  C249     1.0000 0.60310  0.46568  0.78143  Biso   1.000  C
  C250     1.0000 0.20098  0.47075  0.11477  Biso   1.000  C
  C251     1.0000 0.52925  0.73024  0.11477  Biso   1.000  C
  C252     1.0000 0.26976  0.79902  0.11477  Biso   1.000  C
  C253     1.0000 0.16330  0.18020  0.51610  Biso   1.000  C
  C254     1.0000 0.81980  0.98310  0.51610  Biso   1.000  C
  C255     1.0000 0.01690  0.83670  0.51610  Biso   1.000  C
  C256     1.0000 0.82997  0.51353  0.84943  Biso   1.000  C
  C257     1.0000 0.48647  0.31643  0.84943  Biso   1.000  C
  C258     1.0000 0.68357  0.17003  0.84943  Biso   1.000  C
  C259     1.0000 0.49663  0.84687  0.18277  Biso   1.000  C
  C260     1.0000 0.15313  0.64977  0.18277  Biso   1.000  C
  C261     1.0000 0.35023  0.50337  0.18277  Biso   1.000  C
  C262     1.0000 0.83670  0.81980  0.48390  Biso   1.000  C
  C263     1.0000 0.18020  0.01690  0.48390  Biso   1.000  C
  C264     1.0000 0.98310  0.16330  0.48390  Biso   1.000  C
  C265     1.0000 0.50337  0.15313  0.81723  Biso   1.000  C
  C266     1.0000 0.84687  0.35023  0.81723  Biso   1.000  C
  C267     1.0000 0.64977  0.49663  0.81723  Biso   1.000  C
  C268     1.0000 0.17003  0.48647  0.15057  Biso   1.000  C
  C269     1.0000 0.51353  0.68357  0.15057  Biso   1.000  C
  C270     1.0000 0.31643  0.82997  0.15057  Biso   1.000  C
  H181     1.0000 0.15220  0.15550  0.46710  Biso   1.000  H
  H182     1.0000 0.84450  0.99670  0.46710  Biso   1.000  H
  H183     1.0000 0.00330  0.84780  0.46710  Biso   1.000  H
  H184     1.0000 0.81887  0.48883  0.80043  Biso   1.000  H
  H185     1.0000 0.51117  0.33003  0.80043  Biso   1.000  H
  H186     1.0000 0.66997  0.18113  0.80043  Biso   1.000  H
  H187     1.0000 0.48553  0.82217  0.13377  Biso   1.000  H
  H188     1.0000 0.17783  0.66337  0.13377  Biso   1.000  H
  H189     1.0000 0.33663  0.51447  0.13377  Biso   1.000  H
  H190     1.0000 0.84780  0.84450  0.53290  Biso   1.000  H
  H191     1.0000 0.15550  0.00330  0.53290  Biso   1.000  H
  H192     1.0000 0.99670  0.15220  0.53290  Biso   1.000  H
  H193     1.0000 0.51447  0.17783  0.86623  Biso   1.000  H
  H194     1.0000 0.82217  0.33663  0.86623  Biso   1.000  H
  H195     1.0000 0.66337  0.48553  0.86623  Biso   1.000  H
  H196     1.0000 0.18113  0.51117  0.19957  Biso   1.000  H
  H197     1.0000 0.48883  0.66997  0.19957  Biso   1.000  H
  H198     1.0000 0.33003  0.81887  0.19957  Biso   1.000  H
  C271     1.0000 0.21010  0.20100  0.55240  Biso   1.000  C
  C272     1.0000 0.79900  0.00910  0.55240  Biso   1.000  C
  C273     1.0000 0.99090  0.78990  0.55240  Biso   1.000  C
  C274     1.0000 0.87677  0.53433  0.88573  Biso   1.000  C
  C275     1.0000 0.46567  0.34243  0.88573  Biso   1.000  C
  C276     1.0000 0.65757  0.12323  0.88573  Biso   1.000  C
  C277     1.0000 0.54343  0.86767  0.21907  Biso   1.000  C
  C278     1.0000 0.13233  0.67577  0.21907  Biso   1.000  C
  C279     1.0000 0.32423  0.45657  0.21907  Biso   1.000  C
  C280     1.0000 0.78990  0.79900  0.44760  Biso   1.000  C
  C281     1.0000 0.20100  0.99090  0.44760  Biso   1.000  C
  C282     1.0000 0.00910  0.21010  0.44760  Biso   1.000  C
  C283     1.0000 0.45657  0.13233  0.78093  Biso   1.000  C
  C284     1.0000 0.86767  0.32423  0.78093  Biso   1.000  C
  C285     1.0000 0.67577  0.54343  0.78093  Biso   1.000  C
  C286     1.0000 0.12323  0.46567  0.11427  Biso   1.000  C
  C287     1.0000 0.53433  0.65757  0.11427  Biso   1.000  C
  C288     1.0000 0.34243  0.87677  0.11427  Biso   1.000  C
  H199     1.0000 0.23030  0.18980  0.52880  Biso   1.000  H
  H200     1.0000 0.81020  0.04050  0.52880  Biso   1.000  H
  H201     1.0000 0.95950  0.76970  0.52880  Biso   1.000  H
  H202     1.0000 0.89697  0.52313  0.86213  Biso   1.000  H
  H203     1.0000 0.47687  0.37383  0.86213  Biso   1.000  H
  H204     1.0000 0.62617  0.10303  0.86213  Biso   1.000  H
  H205     1.0000 0.56363  0.85647  0.19547  Biso   1.000  H
  H206     1.0000 0.14353  0.70717  0.19547  Biso   1.000  H
  H207     1.0000 0.29283  0.43637  0.19547  Biso   1.000  H
  H208     1.0000 0.76970  0.81020  0.47120  Biso   1.000  H
  H209     1.0000 0.18980  0.95950  0.47120  Biso   1.000  H
  H210     1.0000 0.04050  0.23030  0.47120  Biso   1.000  H
  H211     1.0000 0.43637  0.14353  0.80453  Biso   1.000  H
  H212     1.0000 0.85647  0.29283  0.80453  Biso   1.000  H
  H213     1.0000 0.70717  0.56363  0.80453  Biso   1.000  H
  H214     1.0000 0.10303  0.47687  0.13787  Biso   1.000  H
  H215     1.0000 0.52313  0.62617  0.13787  Biso   1.000  H
  H216     1.0000 0.37383  0.89697  0.13787  Biso   1.000  H
  C289     1.0000 0.22716  0.23834  0.62360  Biso   1.000  C
  C290     1.0000 0.76166  0.98882  0.62360  Biso   1.000  C
  C291     1.0000 0.01118  0.77284  0.62360  Biso   1.000  C
  C292     1.0000 0.89383  0.57167  0.95693  Biso   1.000  C
  C293     1.0000 0.42833  0.32215  0.95693  Biso   1.000  C
  C294     1.0000 0.67785  0.10617  0.95693  Biso   1.000  C
  C295     1.0000 0.56049  0.90501  0.29027  Biso   1.000  C
  C296     1.0000 0.09499  0.65549  0.29027  Biso   1.000  C
  C297     1.0000 0.34451  0.43951  0.29027  Biso   1.000  C
  C298     1.0000 0.77284  0.76166  0.37640  Biso   1.000  C
  C299     1.0000 0.23834  0.01118  0.37640  Biso   1.000  C
  C300     1.0000 0.98882  0.22716  0.37640  Biso   1.000  C
  C301     1.0000 0.43951  0.09499  0.70973  Biso   1.000  C
  C302     1.0000 0.90501  0.34451  0.70973  Biso   1.000  C
  C303     1.0000 0.65549  0.56049  0.70973  Biso   1.000  C
  C304     1.0000 0.10617  0.42833  0.04307  Biso   1.000  C
  C305     1.0000 0.57167  0.67785  0.04307  Biso   1.000  C
  C306     1.0000 0.32215  0.89383  0.04307  Biso   1.000  C
  H217     1.0000 0.25910  0.25280  0.64650  Biso   1.000  H
  H218     1.0000 0.74720  0.00630  0.64650  Biso   1.000  H
  H219     1.0000 0.99370  0.74090  0.64650  Biso   1.000  H
  H220     1.0000 0.92577  0.58613  0.97983  Biso   1.000  H
  H221     1.0000 0.41387  0.33963  0.97983  Biso   1.000  H
  H222     1.0000 0.66037  0.07423  0.97983  Biso   1.000  H
  H223     1.0000 0.59243  0.91947  0.31317  Biso   1.000  H
  H224     1.0000 0.08053  0.67297  0.31317  Biso   1.000  H
  H225     1.0000 0.32703  0.40757  0.31317  Biso   1.000  H
  H226     1.0000 0.74090  0.74720  0.35350  Biso   1.000  H
  H227     1.0000 0.25280  0.99370  0.35350  Biso   1.000  H
  H228     1.0000 0.00630  0.25910  0.35350  Biso   1.000  H
  H229     1.0000 0.40757  0.08053  0.68683  Biso   1.000  H
  H230     1.0000 0.91947  0.32703  0.68683  Biso   1.000  H
  H231     1.0000 0.67297  0.59243  0.68683  Biso   1.000  H
  H232     1.0000 0.07423  0.41387  0.02017  Biso   1.000  H
  H233     1.0000 0.58613  0.66037  0.02017  Biso   1.000  H
  H234     1.0000 0.33963  0.92577  0.02017  Biso   1.000  H
  C307     1.0000 0.19672  0.25431  0.66110  Biso   1.000  C
  C308     1.0000 0.74569  0.94241  0.66110  Biso   1.000  C
  C309     1.0000 0.05759  0.80328  0.66110  Biso   1.000  C
  C310     1.0000 0.86339  0.58764  0.99443  Biso   1.000  C
  C311     1.0000 0.41236  0.27574  0.99443  Biso   1.000  C
  C312     1.0000 0.72426  0.13661  0.99443  Biso   1.000  C
  C313     1.0000 0.53005  0.92098  0.32777  Biso   1.000  C
  C314     1.0000 0.07902  0.60908  0.32777  Biso   1.000  C
  C315     1.0000 0.39092  0.46995  0.32777  Biso   1.000  C
  C316     1.0000 0.80328  0.74569  0.33890  Biso   1.000  C
  C317     1.0000 0.25431  0.05759  0.33890  Biso   1.000  C
  C318     1.0000 0.94241  0.19672  0.33890  Biso   1.000  C
  C319     1.0000 0.46995  0.07902  0.67223  Biso   1.000  C
  C320     1.0000 0.92098  0.39092  0.67223  Biso   1.000  C
  C321     1.0000 0.60908  0.53005  0.67223  Biso   1.000  C
  C322     1.0000 0.13661  0.41236  0.00557  Biso   1.000  C
  C323     1.0000 0.58764  0.72426  0.00557  Biso   1.000  C
  C324     1.0000 0.27574  0.86339  0.00557  Biso   1.000  C
  H235     1.0000 0.20820  0.27900  0.71040  Biso   1.000  H
  H236     1.0000 0.72100  0.92920  0.71040  Biso   1.000  H
  H237     1.0000 0.07080  0.79180  0.71040  Biso   1.000  H
  H238     1.0000 0.87487  0.61233  0.04373  Biso   1.000  H
  H239     1.0000 0.38767  0.26253  0.04373  Biso   1.000  H
  H240     1.0000 0.73747  0.12513  0.04373  Biso   1.000  H
  H241     1.0000 0.54153  0.94567  0.37707  Biso   1.000  H
  H242     1.0000 0.05433  0.59587  0.37707  Biso   1.000  H
  H243     1.0000 0.40413  0.45847  0.37707  Biso   1.000  H
  H244     1.0000 0.79180  0.72100  0.28960  Biso   1.000  H
  H245     1.0000 0.27900  0.07080  0.28960  Biso   1.000  H
  H246     1.0000 0.92920  0.20820  0.28960  Biso   1.000  H
  H247     1.0000 0.45847  0.05433  0.62293  Biso   1.000  H
  H248     1.0000 0.94567  0.40413  0.62293  Biso   1.000  H
  H249     1.0000 0.59587  0.54153  0.62293  Biso   1.000  H
  H250     1.0000 0.12513  0.38767  0.95627  Biso   1.000  H
  H251     1.0000 0.61233  0.73747  0.95627  Biso   1.000  H
  H252     1.0000 0.26253  0.87487  0.95627  Biso   1.000  H
  C325     1.0000 0.91083  0.24000  0.81460  Biso   1.000  C
  C326     1.0000 0.76000  0.67083  0.81460  Biso   1.000  C
  C327     1.0000 0.32917  0.08917  0.81460  Biso   1.000  C
  C328     1.0000 0.57750  0.57333  0.14793  Biso   1.000  C
  C329     1.0000 0.42667  0.00416  0.14793  Biso   1.000  C
  C330     1.0000 0.99584  0.42250  0.14793  Biso   1.000  C
  C331     1.0000 0.24416  0.90667  0.48127  Biso   1.000  C
  C332     1.0000 0.09333  0.33750  0.48127  Biso   1.000  C
  C333     1.0000 0.66250  0.75584  0.48127  Biso   1.000  C
  C334     1.0000 0.08917  0.76000  0.18540  Biso   1.000  C
  C335     1.0000 0.24000  0.32917  0.18540  Biso   1.000  C
  C336     1.0000 0.67083  0.91083  0.18540  Biso   1.000  C
  C337     1.0000 0.75584  0.09333  0.51873  Biso   1.000  C
  C338     1.0000 0.90667  0.66250  0.51873  Biso   1.000  C
  C339     1.0000 0.33750  0.24416  0.51873  Biso   1.000  C
  C340     1.0000 0.42250  0.42667  0.85207  Biso   1.000  C
  C341     1.0000 0.57333  0.99584  0.85207  Biso   1.000  C
  C342     1.0000 0.00416  0.57750  0.85207  Biso   1.000  C
  H253     1.0000 0.91530  0.25080  0.88320  Biso   1.000  H
  H254     1.0000 0.74920  0.66450  0.88320  Biso   1.000  H
  H255     1.0000 0.33550  0.08470  0.88320  Biso   1.000  H
  H256     1.0000 0.58197  0.58413  0.21653  Biso   1.000  H
  H257     1.0000 0.41587  0.99783  0.21653  Biso   1.000  H
  H258     1.0000 0.00217  0.41803  0.21653  Biso   1.000  H
  H259     1.0000 0.24863  0.91747  0.54987  Biso   1.000  H
  H260     1.0000 0.08253  0.33117  0.54987  Biso   1.000  H
  H261     1.0000 0.66883  0.75137  0.54987  Biso   1.000  H
  H262     1.0000 0.08470  0.74920  0.11680  Biso   1.000  H
  H263     1.0000 0.25080  0.33550  0.11680  Biso   1.000  H
  H264     1.0000 0.66450  0.91530  0.11680  Biso   1.000  H
  H265     1.0000 0.75137  0.08253  0.45013  Biso   1.000  H
  H266     1.0000 0.91747  0.66883  0.45013  Biso   1.000  H
  H267     1.0000 0.33117  0.24863  0.45013  Biso   1.000  H
  H268     1.0000 0.41803  0.41587  0.78347  Biso   1.000  H
  H269     1.0000 0.58413  0.00217  0.78347  Biso   1.000  H
  H270     1.0000 0.99783  0.58197  0.78347  Biso   1.000  H
  C343     1.0000 0.86578  0.20356  0.78570  Biso   1.000  C
  C344     1.0000 0.79644  0.66222  0.78570  Biso   1.000  C
  C345     1.0000 0.33778  0.13422  0.78570  Biso   1.000  C
  C346     1.0000 0.53245  0.53689  0.11903  Biso   1.000  C
  C347     1.0000 0.46311  0.99555  0.11903  Biso   1.000  C
  C348     1.0000 0.00445  0.46755  0.11903  Biso   1.000  C
  C349     1.0000 0.19911  0.87023  0.45237  Biso   1.000  C
  C350     1.0000 0.12977  0.32889  0.45237  Biso   1.000  C
  C351     1.0000 0.67111  0.80089  0.45237  Biso   1.000  C
  C352     1.0000 0.13422  0.79644  0.21430  Biso   1.000  C
  C353     1.0000 0.20356  0.33778  0.21430  Biso   1.000  C
  C354     1.0000 0.66222  0.86578  0.21430  Biso   1.000  C
  C355     1.0000 0.80089  0.12977  0.54763  Biso   1.000  C
  C356     1.0000 0.87023  0.67111  0.54763  Biso   1.000  C
  C357     1.0000 0.32889  0.19911  0.54763  Biso   1.000  C
  C358     1.0000 0.46755  0.46311  0.88097  Biso   1.000  C
  C359     1.0000 0.53689  0.00445  0.88097  Biso   1.000  C
  C360     1.0000 0.99555  0.53245  0.88097  Biso   1.000  C
  H271     1.0000 0.84080  0.19010  0.83420  Biso   1.000  H
  H272     1.0000 0.80990  0.65070  0.83420  Biso   1.000  H
  H273     1.0000 0.34930  0.15920  0.83420  Biso   1.000  H
  H274     1.0000 0.50747  0.52343  0.16753  Biso   1.000  H
  H275     1.0000 0.47657  0.98403  0.16753  Biso   1.000  H
  H276     1.0000 0.01597  0.49253  0.16753  Biso   1.000  H
  H277     1.0000 0.17413  0.85677  0.50087  Biso   1.000  H
  H278     1.0000 0.14323  0.31737  0.50087  Biso   1.000  H
  H279     1.0000 0.68263  0.82587  0.50087  Biso   1.000  H
  H280     1.0000 0.15920  0.80990  0.16580  Biso   1.000  H
  H281     1.0000 0.19010  0.34930  0.16580  Biso   1.000  H
  H282     1.0000 0.65070  0.84080  0.16580  Biso   1.000  H
  H283     1.0000 0.82587  0.14323  0.49913  Biso   1.000  H
  H284     1.0000 0.85677  0.68263  0.49913  Biso   1.000  H
  H285     1.0000 0.31737  0.17413  0.49913  Biso   1.000  H
  H286     1.0000 0.49253  0.47657  0.83247  Biso   1.000  H
  H287     1.0000 0.52343  0.01597  0.83247  Biso   1.000  H
  H288     1.0000 0.98403  0.50747  0.83247  Biso   1.000  H
  C361     1.0000 0.85763  0.18689  0.68370  Biso   1.000  C
  C362     1.0000 0.81311  0.67074  0.68370  Biso   1.000  C
  C363     1.0000 0.32926  0.14237  0.68370  Biso   1.000  C
  C364     1.0000 0.52430  0.52022  0.01703  Biso   1.000  C
  C365     1.0000 0.47978  0.00407  0.01703  Biso   1.000  C
  C366     1.0000 0.99593  0.47570  0.01703  Biso   1.000  C
  C367     1.0000 0.19096  0.85356  0.35037  Biso   1.000  C
  C368     1.0000 0.14644  0.33741  0.35037  Biso   1.000  C
  C369     1.0000 0.66259  0.80904  0.35037  Biso   1.000  C
  C370     1.0000 0.14237  0.81311  0.31630  Biso   1.000  C
  C371     1.0000 0.18689  0.32926  0.31630  Biso   1.000  C
  C372     1.0000 0.67074  0.85763  0.31630  Biso   1.000  C
  C373     1.0000 0.80904  0.14644  0.64963  Biso   1.000  C
  C374     1.0000 0.85356  0.66259  0.64963  Biso   1.000  C
  C375     1.0000 0.33741  0.19096  0.64963  Biso   1.000  C
  C376     1.0000 0.47570  0.47978  0.98297  Biso   1.000  C
  C377     1.0000 0.52022  0.99593  0.98297  Biso   1.000  C
  C378     1.0000 0.00407  0.52430  0.98297  Biso   1.000  C
  C379     1.0000 0.89668  0.20909  0.61580  Biso   1.000  C
  C380     1.0000 0.79091  0.68759  0.61580  Biso   1.000  C
  C381     1.0000 0.31241  0.10332  0.61580  Biso   1.000  C
  C382     1.0000 0.56335  0.54242  0.94913  Biso   1.000  C
  C383     1.0000 0.45758  0.02092  0.94913  Biso   1.000  C
  C384     1.0000 0.97908  0.43665  0.94913  Biso   1.000  C
  C385     1.0000 0.23001  0.87576  0.28247  Biso   1.000  C
  C386     1.0000 0.12424  0.35426  0.28247  Biso   1.000  C
  C387     1.0000 0.64574  0.76999  0.28247  Biso   1.000  C
  C388     1.0000 0.10332  0.79091  0.38420  Biso   1.000  C
  C389     1.0000 0.20909  0.31241  0.38420  Biso   1.000  C
  C390     1.0000 0.68759  0.89668  0.38420  Biso   1.000  C
  C391     1.0000 0.76999  0.12424  0.71753  Biso   1.000  C
  C392     1.0000 0.87576  0.64574  0.71753  Biso   1.000  C
  C393     1.0000 0.35426  0.23001  0.71753  Biso   1.000  C
  C394     1.0000 0.43665  0.45758  0.05087  Biso   1.000  C
  C395     1.0000 0.54242  0.97908  0.05087  Biso   1.000  C
  C396     1.0000 0.02092  0.56335  0.05087  Biso   1.000  C
  H289     1.0000 0.89290  0.19960  0.54650  Biso   1.000  H
  H290     1.0000 0.80040  0.69330  0.54650  Biso   1.000  H
  H291     1.0000 0.30670  0.10710  0.54650  Biso   1.000  H
  H292     1.0000 0.55957  0.53293  0.87983  Biso   1.000  H
  H293     1.0000 0.46707  0.02663  0.87983  Biso   1.000  H
  H294     1.0000 0.97337  0.44043  0.87983  Biso   1.000  H
  H295     1.0000 0.22623  0.86627  0.21317  Biso   1.000  H
  H296     1.0000 0.13373  0.35997  0.21317  Biso   1.000  H
  H297     1.0000 0.64003  0.77377  0.21317  Biso   1.000  H
  H298     1.0000 0.10710  0.80040  0.45350  Biso   1.000  H
  H299     1.0000 0.19960  0.30670  0.45350  Biso   1.000  H
  H300     1.0000 0.69330  0.89290  0.45350  Biso   1.000  H
  H301     1.0000 0.77377  0.13373  0.78683  Biso   1.000  H
  H302     1.0000 0.86627  0.64003  0.78683  Biso   1.000  H
  H303     1.0000 0.35997  0.22623  0.78683  Biso   1.000  H
  H304     1.0000 0.44043  0.46707  0.12017  Biso   1.000  H
  H305     1.0000 0.53293  0.97337  0.12017  Biso   1.000  H
  H306     1.0000 0.02663  0.55957  0.12017  Biso   1.000  H
  C397     1.0000 0.94092  0.24523  0.65120  Biso   1.000  C
  C398     1.0000 0.75477  0.69569  0.65120  Biso   1.000  C
  C399     1.0000 0.30431  0.05908  0.65120  Biso   1.000  C
  C400     1.0000 0.60759  0.57856  0.98453  Biso   1.000  C
  C401     1.0000 0.42144  0.02902  0.98453  Biso   1.000  C
  C402     1.0000 0.97098  0.39241  0.98453  Biso   1.000  C
  C403     1.0000 0.27425  0.91190  0.31787  Biso   1.000  C
  C404     1.0000 0.08810  0.36236  0.31787  Biso   1.000  C
  C405     1.0000 0.63764  0.72575  0.31787  Biso   1.000  C
  C406     1.0000 0.05908  0.75477  0.34880  Biso   1.000  C
  C407     1.0000 0.24523  0.30431  0.34880  Biso   1.000  C
  C408     1.0000 0.69569  0.94092  0.34880  Biso   1.000  C
  C409     1.0000 0.72575  0.08810  0.68213  Biso   1.000  C
  C410     1.0000 0.91190  0.63764  0.68213  Biso   1.000  C
  C411     1.0000 0.36236  0.27425  0.68213  Biso   1.000  C
  C412     1.0000 0.39241  0.42144  0.01547  Biso   1.000  C
  C413     1.0000 0.57856  0.97098  0.01547  Biso   1.000  C
  C414     1.0000 0.02902  0.60759  0.01547  Biso   1.000  C
  H307     1.0000 0.96660  0.25950  0.60450  Biso   1.000  H
  H308     1.0000 0.74050  0.70710  0.60450  Biso   1.000  H
  H309     1.0000 0.29290  0.03340  0.60450  Biso   1.000  H
  H310     1.0000 0.63327  0.59283  0.93783  Biso   1.000  H
  H311     1.0000 0.40717  0.04043  0.93783  Biso   1.000  H
  H312     1.0000 0.95957  0.36673  0.93783  Biso   1.000  H
  H313     1.0000 0.29993  0.92617  0.27117  Biso   1.000  H
  H314     1.0000 0.07383  0.37377  0.27117  Biso   1.000  H
  H315     1.0000 0.62623  0.70007  0.27117  Biso   1.000  H
  H316     1.0000 0.03340  0.74050  0.39550  Biso   1.000  H
  H317     1.0000 0.25950  0.29290  0.39550  Biso   1.000  H
  H318     1.0000 0.70710  0.96660  0.39550  Biso   1.000  H
  H319     1.0000 0.70007  0.07383  0.72883  Biso   1.000  H
  H320     1.0000 0.92617  0.62623  0.72883  Biso   1.000  H
  H321     1.0000 0.37377  0.29993  0.72883  Biso   1.000  H
  H322     1.0000 0.36673  0.40717  0.06217  Biso   1.000  H
  H323     1.0000 0.59283  0.95957  0.06217  Biso   1.000  H
  H324     1.0000 0.04043  0.63327  0.06217  Biso   1.000  H
  N1       1.0000 0.94851  0.26077  0.75020  Biso   1.000  N
  N2       1.0000 0.73923  0.68774  0.75020  Biso   1.000  N
  N3       1.0000 0.31226  0.05149  0.75020  Biso   1.000  N
  N4       1.0000 0.61518  0.59410  0.08353  Biso   1.000  N
  N5       1.0000 0.40590  0.02107  0.08353  Biso   1.000  N
  N6       1.0000 0.97893  0.38482  0.08353  Biso   1.000  N
  N7       1.0000 0.28184  0.92744  0.41687  Biso   1.000  N
  N8       1.0000 0.07256  0.35441  0.41687  Biso   1.000  N
  N9       1.0000 0.64559  0.71816  0.41687  Biso   1.000  N
  N10      1.0000 0.05149  0.73923  0.24980  Biso   1.000  N
  N11      1.0000 0.26077  0.31226  0.24980  Biso   1.000  N
  N12      1.0000 0.68774  0.94851  0.24980  Biso   1.000  N
  N13      1.0000 0.71816  0.07256  0.58313  Biso   1.000  N
  N14      1.0000 0.92744  0.64559  0.58313  Biso   1.000  N
  N15      1.0000 0.35441  0.28184  0.58313  Biso   1.000  N
  N16      1.0000 0.38482  0.40590  0.91647  Biso   1.000  N
  N17      1.0000 0.59410  0.97893  0.91647  Biso   1.000  N
  N18      1.0000 0.02107  0.61518  0.91647  Biso   1.000  N
  O19      1.0000 0.03296  0.37666  0.79130  Biso   1.000  O
  O20      1.0000 0.62334  0.65630  0.79130  Biso   1.000  O
  O21      1.0000 0.34370  0.96704  0.79130  Biso   1.000  O
  O22      1.0000 0.69963  0.70999  0.12463  Biso   1.000  O
  O23      1.0000 0.29001  0.98963  0.12463  Biso   1.000  O
  O24      1.0000 0.01037  0.30037  0.12463  Biso   1.000  O
  O25      1.0000 0.36629  0.04333  0.45797  Biso   1.000  O
  O26      1.0000 0.95667  0.32297  0.45797  Biso   1.000  O
  O27      1.0000 0.67703  0.63371  0.45797  Biso   1.000  O
  O28      1.0000 0.96704  0.62334  0.20870  Biso   1.000  O
  O29      1.0000 0.37666  0.34370  0.20870  Biso   1.000  O
  O30      1.0000 0.65630  0.03296  0.20870  Biso   1.000  O
  O31      1.0000 0.63371  0.95667  0.54203  Biso   1.000  O
  O32      1.0000 0.04333  0.67703  0.54203  Biso   1.000  O
  O33      1.0000 0.32297  0.36629  0.54203  Biso   1.000  O
  O34      1.0000 0.30037  0.29001  0.87537  Biso   1.000  O
  O35      1.0000 0.70999  0.01037  0.87537  Biso   1.000  O
  O36      1.0000 0.98963  0.69963  0.87537  Biso   1.000  O
  O37      1.0000 0.00441  0.30370  0.95470  Biso   1.000  O
  O38      1.0000 0.69630  0.70071  0.95470  Biso   1.000  O
  O39      1.0000 0.29929  0.99559  0.95470  Biso   1.000  O
  O40      1.0000 0.67108  0.63703  0.28803  Biso   1.000  O
  O41      1.0000 0.36297  0.03404  0.28803  Biso   1.000  O
  O42      1.0000 0.96596  0.32892  0.28803  Biso   1.000  O
  O43      1.0000 0.33774  0.97037  0.62137  Biso   1.000  O
  O44      1.0000 0.02963  0.36738  0.62137  Biso   1.000  O
  O45      1.0000 0.63262  0.66226  0.62137  Biso   1.000  O
  O46      1.0000 0.99559  0.69630  0.04530  Biso   1.000  O
  O47      1.0000 0.30370  0.29929  0.04530  Biso   1.000  O
  O48      1.0000 0.70071  0.00441  0.04530  Biso   1.000  O
  O49      1.0000 0.66226  0.02963  0.37863  Biso   1.000  O
  O50      1.0000 0.97037  0.63262  0.37863  Biso   1.000  O
  O51      1.0000 0.36738  0.33774  0.37863  Biso   1.000  O
  O52      1.0000 0.32892  0.36297  0.71197  Biso   1.000  O
  O53      1.0000 0.63703  0.96596  0.71197  Biso   1.000  O
  O54      1.0000 0.03404  0.67108  0.71197  Biso   1.000  O
  O55      1.0000 0.05091  0.27842  0.74330  Biso   1.000  O
  O56      1.0000 0.72158  0.77249  0.74330  Biso   1.000  O
  O57      1.0000 0.22751  0.94909  0.74330  Biso   1.000  O
  O58      1.0000 0.71758  0.61175  0.07663  Biso   1.000  O
  O59      1.0000 0.38825  0.10582  0.07663  Biso   1.000  O
  O60      1.0000 0.89418  0.28242  0.07663  Biso   1.000  O
  O61      1.0000 0.38424  0.94509  0.40997  Biso   1.000  O
  O62      1.0000 0.05491  0.43916  0.40997  Biso   1.000  O
  O63      1.0000 0.56084  0.61576  0.40997  Biso   1.000  O
  O64      1.0000 0.94909  0.72158  0.25670  Biso   1.000  O
  O65      1.0000 0.27842  0.22751  0.25670  Biso   1.000  O
  O66      1.0000 0.77249  0.05091  0.25670  Biso   1.000  O
  O67      1.0000 0.61576  0.05491  0.59003  Biso   1.000  O
  O68      1.0000 0.94509  0.56084  0.59003  Biso   1.000  O
  O69      1.0000 0.43916  0.38424  0.59003  Biso   1.000  O
  O70      1.0000 0.28242  0.38825  0.92337  Biso   1.000  O
  O71      1.0000 0.61175  0.89418  0.92337  Biso   1.000  O
  O72      1.0000 0.10582  0.71758  0.92337  Biso   1.000  O
  O73      1.0000 0.11308  0.34880  0.78790  Biso   1.000  O
  O74      1.0000 0.65120  0.76428  0.78790  Biso   1.000  O
  O75      1.0000 0.23572  0.88692  0.78790  Biso   1.000  O
  O76      1.0000 0.77975  0.68213  0.12123  Biso   1.000  O
  O77      1.0000 0.31787  0.09761  0.12123  Biso   1.000  O
  O78      1.0000 0.90239  0.22025  0.12123  Biso   1.000  O
  O79      1.0000 0.44641  0.01547  0.45457  Biso   1.000  O
  O80      1.0000 0.98453  0.43095  0.45457  Biso   1.000  O
  O81      1.0000 0.56905  0.55359  0.45457  Biso   1.000  O
  O82      1.0000 0.88692  0.65120  0.21210  Biso   1.000  O
  O83      1.0000 0.34880  0.23572  0.21210  Biso   1.000  O
  O84      1.0000 0.76428  0.11308  0.21210  Biso   1.000  O
  O85      1.0000 0.55359  0.98453  0.54543  Biso   1.000  O
  O86      1.0000 0.01547  0.56905  0.54543  Biso   1.000  O
  O87      1.0000 0.43095  0.44641  0.54543  Biso   1.000  O
  O88      1.0000 0.22025  0.31787  0.87877  Biso   1.000  O
  O89      1.0000 0.68213  0.90239  0.87877  Biso   1.000  O
  O90      1.0000 0.09761  0.77975  0.87877  Biso   1.000  O
  O91      1.0000 0.07549  0.53728  0.60480  Biso   1.000  O
  O92      1.0000 0.46272  0.53821  0.60480  Biso   1.000  O
  O93      1.0000 0.46179  0.92451  0.60480  Biso   1.000  O
  O94      1.0000 0.74216  0.87061  0.93813  Biso   1.000  O
  O95      1.0000 0.12939  0.87154  0.93813  Biso   1.000  O
  O96      1.0000 0.12846  0.25784  0.93813  Biso   1.000  O
  O97      1.0000 0.40882  0.20395  0.27147  Biso   1.000  O
  O98      1.0000 0.79605  0.20488  0.27147  Biso   1.000  O
  O99      1.0000 0.79512  0.59118  0.27147  Biso   1.000  O
  O100     1.0000 0.92451  0.46272  0.39520  Biso   1.000  O
  O101     1.0000 0.53728  0.46179  0.39520  Biso   1.000  O
  O102     1.0000 0.53821  0.07549  0.39520  Biso   1.000  O
  O103     1.0000 0.59118  0.79605  0.72853  Biso   1.000  O
  O104     1.0000 0.20395  0.79512  0.72853  Biso   1.000  O
  O105     1.0000 0.20488  0.40882  0.72853  Biso   1.000  O
  O106     1.0000 0.25784  0.12939  0.06187  Biso   1.000  O
  O107     1.0000 0.87061  0.12846  0.06187  Biso   1.000  O
  O108     1.0000 0.87154  0.74216  0.06187  Biso   1.000  O
  H325     1.0000 0.06420  0.55230  0.57540  Biso   1.000  H
  H326     1.0000 0.44770  0.51190  0.57540  Biso   1.000  H
  H327     1.0000 0.48810  0.93580  0.57540  Biso   1.000  H
  H328     1.0000 0.73087  0.88563  0.90873  Biso   1.000  H
  H329     1.0000 0.11437  0.84523  0.90873  Biso   1.000  H
  H330     1.0000 0.15477  0.26913  0.90873  Biso   1.000  H
  H331     1.0000 0.39753  0.21897  0.24207  Biso   1.000  H
  H332     1.0000 0.78103  0.17857  0.24207  Biso   1.000  H
  H333     1.0000 0.82143  0.60247  0.24207  Biso   1.000  H
  H334     1.0000 0.93580  0.44770  0.42460  Biso   1.000  H
  H335     1.0000 0.55230  0.48810  0.42460  Biso   1.000  H
  H336     1.0000 0.51190  0.06420  0.42460  Biso   1.000  H
  H337     1.0000 0.60247  0.78103  0.75793  Biso   1.000  H
  H338     1.0000 0.21897  0.82143  0.75793  Biso   1.000  H
  H339     1.0000 0.17857  0.39753  0.75793  Biso   1.000  H
  H340     1.0000 0.26913  0.11437  0.09127  Biso   1.000  H
  H341     1.0000 0.88563  0.15477  0.09127  Biso   1.000  H
  H342     1.0000 0.84523  0.73087  0.09127  Biso   1.000  H
  O109     1.0000 0.08641  0.17654  0.51830  Biso   1.000  O
  O110     1.0000 0.82346  0.90987  0.51830  Biso   1.000  O
  O111     1.0000 0.09013  0.91359  0.51830  Biso   1.000  O
  O112     1.0000 0.75308  0.50987  0.85163  Biso   1.000  O
  O113     1.0000 0.49013  0.24320  0.85163  Biso   1.000  O
  O114     1.0000 0.75680  0.24692  0.85163  Biso   1.000  O
  O115     1.0000 0.41974  0.84321  0.18497  Biso   1.000  O
  O116     1.0000 0.15679  0.57654  0.18497  Biso   1.000  O
  O117     1.0000 0.42346  0.58026  0.18497  Biso   1.000  O
  O118     1.0000 0.91359  0.82346  0.48170  Biso   1.000  O
  O119     1.0000 0.17654  0.09013  0.48170  Biso   1.000  O
  O120     1.0000 0.90987  0.08641  0.48170  Biso   1.000  O
  O121     1.0000 0.58026  0.15679  0.81503  Biso   1.000  O
  O122     1.0000 0.84321  0.42346  0.81503  Biso   1.000  O
  O123     1.0000 0.57654  0.41974  0.81503  Biso   1.000  O
  O124     1.0000 0.24692  0.49013  0.14837  Biso   1.000  O
  O125     1.0000 0.50987  0.75680  0.14837  Biso   1.000  O
  O126     1.0000 0.24320  0.75308  0.14837  Biso   1.000  O
  H343     1.0000 0.08020  0.15410  0.47840  Biso   1.000  H
  H344     1.0000 0.84590  0.92610  0.47840  Biso   1.000  H
  H345     1.0000 0.07390  0.91980  0.47840  Biso   1.000  H
  H346     1.0000 0.74687  0.48743  0.81173  Biso   1.000  H
  H347     1.0000 0.51257  0.25943  0.81173  Biso   1.000  H
  H348     1.0000 0.74057  0.25313  0.81173  Biso   1.000  H
  H349     1.0000 0.41353  0.82077  0.14507  Biso   1.000  H
  H350     1.0000 0.17923  0.59277  0.14507  Biso   1.000  H
  H351     1.0000 0.40723  0.58647  0.14507  Biso   1.000  H
  H352     1.0000 0.91980  0.84590  0.52160  Biso   1.000  H
  H353     1.0000 0.15410  0.07390  0.52160  Biso   1.000  H
  H354     1.0000 0.92610  0.08020  0.52160  Biso   1.000  H
  H355     1.0000 0.58647  0.17923  0.85493  Biso   1.000  H
  H356     1.0000 0.82077  0.40723  0.85493  Biso   1.000  H
  H357     1.0000 0.59277  0.41353  0.85493  Biso   1.000  H
  H358     1.0000 0.25313  0.51257  0.18827  Biso   1.000  H
  H359     1.0000 0.48743  0.74057  0.18827  Biso   1.000  H
  H360     1.0000 0.25943  0.74687  0.18827  Biso   1.000  H
  O127     1.0000 0.00000  0.00000  0.00000  Biso   1.000  O
  O128     1.0000 0.66667  0.33333  0.33333  Biso   1.000  O
  O129     1.0000 0.33333  0.66667  0.66667  Biso   1.000  O
  H361     1.0000 0.00000  0.00000  0.06600  Biso   1.000  H
  H362     1.0000 0.66667  0.33333  0.39933  Biso   1.000  H
  H363     1.0000 0.33333  0.66667  0.73267  Biso   1.000  H
  H364     1.0000 0.00000  0.00000  0.93400  Biso   1.000  H
  H365     1.0000 0.66667  0.33333  0.26733  Biso   1.000  H
  H366     1.0000 0.33333  0.66667  0.60067  Biso   1.000  H
  H367     1.0000 0.01750  0.02830  0.97500  Biso   1.000  H
  H368     1.0000 0.97170  0.98920  0.97500  Biso   1.000  H
  H369     1.0000 0.01080  0.98250  0.97500  Biso   1.000  H
  H370     1.0000 0.68417  0.36163  0.30833  Biso   1.000  H
  H371     1.0000 0.63837  0.32253  0.30833  Biso   1.000  H
  H372     1.0000 0.67747  0.31583  0.30833  Biso   1.000  H
  H373     1.0000 0.35083  0.69497  0.64167  Biso   1.000  H
  H374     1.0000 0.30503  0.65587  0.64167  Biso   1.000  H
  H375     1.0000 0.34413  0.64917  0.64167  Biso   1.000  H
  H376     1.0000 0.98250  0.97170  0.02500  Biso   1.000  H
  H377     1.0000 0.02830  0.01080  0.02500  Biso   1.000  H
  H378     1.0000 0.98920  0.01750  0.02500  Biso   1.000  H
  H379     1.0000 0.64917  0.30503  0.35833  Biso   1.000  H
  H380     1.0000 0.69497  0.34413  0.35833  Biso   1.000  H
  H381     1.0000 0.65587  0.35083  0.35833  Biso   1.000  H
  H382     1.0000 0.31583  0.63837  0.69167  Biso   1.000  H
  H383     1.0000 0.36163  0.67747  0.69167  Biso   1.000  H
  H384     1.0000 0.32253  0.68417  0.69167  Biso   1.000  H
  O130     1.0000 0.06140  0.13290  0.78060  Biso   1.000  O
  O131     1.0000 0.86710  0.92850  0.78060  Biso   1.000  O
  O132     1.0000 0.07150  0.93860  0.78060  Biso   1.000  O
  O133     1.0000 0.72807  0.46623  0.11393  Biso   1.000  O
  O134     1.0000 0.53377  0.26183  0.11393  Biso   1.000  O
  O135     1.0000 0.73817  0.27193  0.11393  Biso   1.000  O
  O136     1.0000 0.39473  0.79957  0.44727  Biso   1.000  O
  O137     1.0000 0.20043  0.59517  0.44727  Biso   1.000  O
  O138     1.0000 0.40483  0.60527  0.44727  Biso   1.000  O
  O139     1.0000 0.93860  0.86710  0.21940  Biso   1.000  O
  O140     1.0000 0.13290  0.07150  0.21940  Biso   1.000  O
  O141     1.0000 0.92850  0.06140  0.21940  Biso   1.000  O
  O142     1.0000 0.60527  0.20043  0.55273  Biso   1.000  O
  O143     1.0000 0.79957  0.40483  0.55273  Biso   1.000  O
  O144     1.0000 0.59517  0.39473  0.55273  Biso   1.000  O
  O145     1.0000 0.27193  0.53377  0.88607  Biso   1.000  O
  O146     1.0000 0.46623  0.73817  0.88607  Biso   1.000  O
  O147     1.0000 0.26183  0.72807  0.88607  Biso   1.000  O
  O148     1.0000 0.06750  0.11020  0.92810  Biso   1.000  O
  O149     1.0000 0.88980  0.95730  0.92810  Biso   1.000  O
  O150     1.0000 0.04270  0.93250  0.92810  Biso   1.000  O
  O151     1.0000 0.73417  0.44353  0.26143  Biso   1.000  O
  O152     1.0000 0.55647  0.29063  0.26143  Biso   1.000  O
  O153     1.0000 0.70937  0.26583  0.26143  Biso   1.000  O
  O154     1.0000 0.40083  0.77687  0.59477  Biso   1.000  O
  O155     1.0000 0.22313  0.62397  0.59477  Biso   1.000  O
  O156     1.0000 0.37603  0.59917  0.59477  Biso   1.000  O
  O157     1.0000 0.93250  0.88980  0.07190  Biso   1.000  O
  O158     1.0000 0.11020  0.04270  0.07190  Biso   1.000  O
  O159     1.0000 0.95730  0.06750  0.07190  Biso   1.000  O
  O160     1.0000 0.59917  0.22313  0.40523  Biso   1.000  O
  O161     1.0000 0.77687  0.37603  0.40523  Biso   1.000  O
  O162     1.0000 0.62397  0.40083  0.40523  Biso   1.000  O
  O163     1.0000 0.26583  0.55647  0.73857  Biso   1.000  O
  O164     1.0000 0.44353  0.70937  0.73857  Biso   1.000  O
  O165     1.0000 0.29063  0.73417  0.73857  Biso   1.000  O
  O166     1.0000 0.11550  0.13580  0.81830  Biso   1.000  O
  O167     1.0000 0.86420  0.97970  0.81830  Biso   1.000  O
  O168     1.0000 0.02030  0.88450  0.81830  Biso   1.000  O
  O169     1.0000 0.78217  0.46913  0.15163  Biso   1.000  O
  O170     1.0000 0.53087  0.31303  0.15163  Biso   1.000  O
  O171     1.0000 0.68697  0.21783  0.15163  Biso   1.000  O
  O172     1.0000 0.44883  0.80247  0.48497  Biso   1.000  O
  O173     1.0000 0.19753  0.64637  0.48497  Biso   1.000  O
  O174     1.0000 0.35363  0.55117  0.48497  Biso   1.000  O
  O175     1.0000 0.88450  0.86420  0.18170  Biso   1.000  O
  O176     1.0000 0.13580  0.02030  0.18170  Biso   1.000  O
  O177     1.0000 0.97970  0.11550  0.18170  Biso   1.000  O
  O178     1.0000 0.55117  0.19753  0.51503  Biso   1.000  O
  O179     1.0000 0.80247  0.35363  0.51503  Biso   1.000  O
  O180     1.0000 0.64637  0.44883  0.51503  Biso   1.000  O
  O181     1.0000 0.21783  0.53087  0.84837  Biso   1.000  O
  O182     1.0000 0.46913  0.68697  0.84837  Biso   1.000  O
  O183     1.0000 0.31303  0.78217  0.84837  Biso   1.000  O
  Zn1      1.0000 0.01673  0.30927  0.80286  Biso   1.000  Zn
  Zn2      1.0000 0.69073  0.70746  0.80286  Biso   1.000  Zn
  Zn3      1.0000 0.29254  0.98327  0.80286  Biso   1.000  Zn
  Zn4      1.0000 0.68339  0.64260  0.13619  Biso   1.000  Zn
  Zn5      1.0000 0.35740  0.04079  0.13619  Biso   1.000  Zn
  Zn6      1.0000 0.95921  0.31661  0.13619  Biso   1.000  Zn
  Zn7      1.0000 0.35006  0.97593  0.46953  Biso   1.000  Zn
  Zn8      1.0000 0.02407  0.37413  0.46953  Biso   1.000  Zn
  Zn9      1.0000 0.62587  0.64994  0.46953  Biso   1.000  Zn
  Zn10     1.0000 0.98327  0.69073  0.19714  Biso   1.000  Zn
  Zn11     1.0000 0.30927  0.29254  0.19714  Biso   1.000  Zn
  Zn12     1.0000 0.70746  0.01673  0.19714  Biso   1.000  Zn
  Zn13     1.0000 0.64994  0.02407  0.53047  Biso   1.000  Zn
  Zn14     1.0000 0.97593  0.62587  0.53047  Biso   1.000  Zn
  Zn15     1.0000 0.37413  0.35006  0.53047  Biso   1.000  Zn
  Zn16     1.0000 0.31661  0.35740  0.86381  Biso   1.000  Zn
  Zn17     1.0000 0.64260  0.95921  0.86381  Biso   1.000  Zn
  Zn18     1.0000 0.04079  0.68339  0.86381  Biso   1.000  Zn
