data_Co-formate_PM
_symmetry_space_group_name_H-M    'P1'
_cell_length_a    9.883900
_cell_length_b    18.237000
_cell_length_c    18.081800
_cell_angle_alpha    90.000000
_cell_angle_beta     90.000000
_cell_angle_gamma    90.000000
_symmetry_Int_Tables_number 1

loop_
_symmetry_equiv_pos_as_xyz
'x,y,z'

loop_
_atom_site_label
_atom_site_type_symbol
_atom_site_fract_x
_atom_site_fract_y
_atom_site_fract_z
Co1    Co    0.578220    0.178900    0.060900
Co2    Co    0.921780    0.321100    0.560900
Co3    Co    0.421780    0.178900    0.439100
Co4    Co    0.078220    0.321100    0.939100
Co5    Co    0.421780    0.821100    0.939100
Co6    Co    0.078220    0.678900    0.439100
Co7    Co    0.578220    0.821100    0.560900
Co8    Co    0.921780    0.678900    0.060900
Co9    Co    0.387620    0.283290    0.964880
Co10    Co    0.112380    0.216710    0.464880
Co11    Co    0.612380    0.283290    0.535120
Co12    Co    0.887620    0.216710    0.035120
Co13    Co    0.612380    0.716710    0.035120
Co14    Co    0.887620    0.783290    0.535120
Co15    Co    0.387620    0.716710    0.464880
Co16    Co    0.112380    0.783290    0.964880
Co17    Co    0.500000    0.187370    0.250000
Co18    Co    0.000000    0.312630    0.750000
Co19    Co    0.500000    0.812630    0.750000
Co20    Co    0.000000    0.687370    0.250000
Co21    Co    0.500000    0.000000    0.000000
Co22    Co    0.000000    0.500000    0.500000
Co23    Co    0.500000    0.000000    0.500000
Co24    Co    0.000000    0.500000    0.000000
O1    O    0.494400    0.185150    0.954740
O2    O    0.005600    0.314850    0.454740
O3    O    0.505600    0.185150    0.545260
O4    O    0.994400    0.314850    0.045260
O5    O    0.505600    0.814850    0.045260
O6    O    0.994400    0.685150    0.545260
O7    O    0.494400    0.814850    0.454740
O8    O    0.005600    0.685150    0.954740
O9    O    0.500500    0.071850    0.909720
O10    O    0.999500    0.428150    0.409720
O11    O    0.499500    0.071850    0.590280
O12    O    0.000500    0.428150    0.090280
O13    O    0.499500    0.928150    0.090280
O14    O    0.000500    0.571850    0.590280
O15    O    0.500500    0.928150    0.409720
O16    O    0.999500    0.571850    0.909720
O17    O    0.707600    0.007350    0.008690
O18    O    0.792400    0.492650    0.508690
O19    O    0.292400    0.007350    0.491310
O20    O    0.207600    0.492650    0.991310
O21    O    0.292400    0.992650    0.991310
O22    O    0.207600    0.507350    0.491310
O23    O    0.707600    0.992650    0.508690
O24    O    0.792400    0.507350    0.008690
O25    O    0.755300    0.126870    0.022140
O26    O    0.744700    0.373130    0.522140
O27    O    0.244700    0.126870    0.477860
O28    O    0.255300    0.373130    0.977860
O29    O    0.244700    0.873130    0.977860
O30    O    0.255300    0.626870    0.477860
O31    O    0.755300    0.873130    0.522140
O32    O    0.744700    0.626870    0.022140
O33    O    0.473500    0.083820    0.080670
O34    O    0.026500    0.416180    0.580670
O35    O    0.526500    0.083820    0.419330
O36    O    0.973500    0.416180    0.919330
O37    O    0.526500    0.916180    0.919330
O38    O    0.973500    0.583820    0.419330
O39    O    0.473500    0.916180    0.580670
O40    O    0.026500    0.583820    0.080670
O41    O    0.389700    0.108320    0.193320
O42    O    0.110300    0.391680    0.693320
O43    O    0.610300    0.108320    0.306680
O44    O    0.889700    0.391680    0.806680
O45    O    0.610300    0.891680    0.806680
O46    O    0.889700    0.608320    0.306680
O47    O    0.389700    0.891680    0.693320
O48    O    0.110300    0.608320    0.193320
O49    O    0.653700    0.186360    0.168320
O50    O    0.846300    0.313640    0.668320
O51    O    0.346300    0.186360    0.331680
O52    O    0.153700    0.313640    0.831680
O53    O    0.346300    0.813640    0.831680
O54    O    0.153700    0.686360    0.331680
O55    O    0.653700    0.813640    0.668320
O56    O    0.846300    0.686360    0.168320
O57    O    0.698100    0.269630    0.031940
O58    O    0.801900    0.230370    0.531940
O59    O    0.301900    0.269630    0.468060
O60    O    0.198100    0.230370    0.968060
O61    O    0.301900    0.730370    0.968060
O62    O    0.198100    0.769630    0.468060
O63    O    0.698100    0.730370    0.531940
O64    O    0.801900    0.769630    0.031940
O65    O    0.557500    0.347080    0.974300
O66    O    0.942500    0.152920    0.474300
O67    O    0.442500    0.347080    0.525700
O68    O    0.057500    0.152920    0.025700
O69    O    0.442500    0.652920    0.025700
O70    O    0.057500    0.847080    0.525700
O71    O    0.557500    0.652920    0.474300
O72    O    0.942500    0.847080    0.974300
O73    O    0.415100    0.251310    0.076360
O74    O    0.084900    0.248690    0.576360
O75    O    0.584900    0.251310    0.423640
O76    O    0.915100    0.248690    0.923640
O77    O    0.584900    0.748690    0.923640
O78    O    0.915100    0.751310    0.423640
O79    O    0.415100    0.748690    0.576360
O80    O    0.084900    0.751310    0.076360
O81    O    0.388500    0.268460    0.197890
O82    O    0.111500    0.231540    0.697890
O83    O    0.611500    0.268460    0.302110
O84    O    0.888500    0.231540    0.802110
O85    O    0.611500    0.731540    0.802110
O86    O    0.888500    0.768460    0.302110
O87    O    0.388500    0.731540    0.697890
O88    O    0.111500    0.768460    0.197890
O89    O    0.375500    0.297110    0.852850
O90    O    0.124500    0.202890    0.352850
O91    O    0.624500    0.297110    0.647150
O92    O    0.875500    0.202890    0.147150
O93    O    0.624500    0.702890    0.147150
O94    O    0.875500    0.797110    0.647150
O95    O    0.375500    0.702890    0.352850
O96    O    0.124500    0.797110    0.852850
C1    C    0.484200    0.138600    0.903600
C2    C    0.015800    0.361400    0.403600
C3    C    0.515800    0.138600    0.596400
C4    C    0.984200    0.361400    0.096400
C5    C    0.515800    0.861400    0.096400
C6    C    0.984200    0.638600    0.596400
C7    C    0.484200    0.861400    0.403600
C8    C    0.015800    0.638600    0.903600
C9    C    0.787100    0.060000    0.012300
C10    C    0.712900    0.440000    0.512300
C11    C    0.212900    0.060000    0.487700
C12    C    0.287100    0.440000    0.987700
C13    C    0.212900    0.940000    0.987700
C14    C    0.287100    0.560000    0.487700
C15    C    0.787100    0.940000    0.512300
C16    C    0.712900    0.560000    0.012300
C17    C    0.396800    0.072000    0.136600
C18    C    0.103200    0.428000    0.636600
C19    C    0.603200    0.072000    0.363400
C20    C    0.896800    0.428000    0.863400
C21    C    0.603200    0.928000    0.863400
C22    C    0.896800    0.572000    0.363400
C23    C    0.396800    0.928000    0.636600
C24    C    0.103200    0.572000    0.136600
C25    C    0.776500    0.192100    0.188300
C26    C    0.723500    0.307900    0.688300
C27    C    0.223500    0.192100    0.311700
C28    C    0.276500    0.307900    0.811700
C29    C    0.223500    0.807900    0.811700
C30    C    0.276500    0.692100    0.311700
C31    C    0.776500    0.807900    0.688300
C32    C    0.723500    0.692100    0.188300
C33    C    0.669100    0.329340    0.999900
C34    C    0.830900    0.170660    0.499900
C35    C    0.330900    0.329340    0.500100
C36    C    0.169100    0.170660    0.000100
C37    C    0.330900    0.670660    0.000100
C38    C    0.169100    0.829340    0.500100
C39    C    0.669100    0.670660    0.499900
C40    C    0.830900    0.829340    0.999900
C41    C    0.363000    0.282000    0.133200
C42    C    0.137000    0.218000    0.633200
C43    C    0.637000    0.282000    0.366800
C44    C    0.863000    0.218000    0.866800
C45    C    0.637000    0.718000    0.866800
C46    C    0.863000    0.782000    0.366800
C47    C    0.363000    0.718000    0.633200
C48    C    0.137000    0.782000    0.133200
H1    H    0.876000    0.045000    0.015000
H2    H    0.624000    0.455000    0.515000
H3    H    0.124000    0.045000    0.485000
H4    H    0.376000    0.455000    0.985000
H5    H    0.124000    0.955000    0.985000
H6    H    0.376000    0.545000    0.485000
H7    H    0.876000    0.955000    0.515000
H8    H    0.624000    0.545000    0.015000
H9    H    0.333000    0.034000    0.132200
H10    H    0.167000    0.466000    0.632200
H11    H    0.667000    0.034000    0.367800
H12    H    0.833000    0.466000    0.867800
H13    H    0.667000    0.966000    0.867800
H14    H    0.833000    0.534000    0.367800
H15    H    0.333000    0.966000    0.632200
H16    H    0.167000    0.534000    0.132200
H17    H    0.795000    0.188300    0.239100
H18    H    0.705000    0.311700    0.739100
H19    H    0.205000    0.188300    0.260900
H20    H    0.295000    0.311700    0.760900
H21    H    0.205000    0.811700    0.760900
H22    H    0.295000    0.688300    0.260900
H23    H    0.795000    0.811700    0.739100
H24    H    0.705000    0.688300    0.239100
H25    H    0.741000    0.366500    0.994700
H26    H    0.759000    0.133500    0.494700
H27    H    0.259000    0.366500    0.505300
H28    H    0.241000    0.133500    0.005300
H29    H    0.259000    0.633500    0.005300
H30    H    0.241000    0.866500    0.505300
H31    H    0.741000    0.633500    0.494700
H32    H    0.759000    0.866500    0.994700
H33    H    0.288000    0.322000    0.121000
H34    H    0.212000    0.178000    0.621000
H35    H    0.712000    0.322000    0.379000
H36    H    0.788000    0.178000    0.879000
H37    H    0.712000    0.678000    0.879000
H38    H    0.788000    0.822000    0.379000
H39    H    0.288000    0.678000    0.621000
H40    H    0.212000    0.822000    0.121000
H41    H    0.469000    0.154000    0.858000
H42    H    0.031000    0.346000    0.358000
H43    H    0.531000    0.154000    0.642000
H44    H    0.969000    0.346000    0.142000
H45    H    0.531000    0.846000    0.142000
H46    H    0.969000    0.654000    0.642000
H47    H    0.469000    0.846000    0.358000
H48    H    0.031000    0.654000    0.858000
