data_COF-103
_audit_creation_date              0000-00-00
_audit_creation_method            'LanYouShi'
_symmetry_space_group_name_H-M    'P1'
_cell_length_a                    28.2476997
_cell_length_b                    28.2476997
_cell_length_c                    28.2476997
_cell_angle_alpha                 90.0000000
_cell_angle_beta                  90.0000000
_cell_angle_gamma                 90.0000000
loop_
_atom_site_label
_atom_site_type_symbol
_atom_site_fract_x
_atom_site_fract_y
_atom_site_fract_z
_atom_site_U_iso_or_equiv
_atom_site_adp_type
_atom_site_occupancy
        C1          C  0.3407000  0.0796600  0.2000100    0.00000       Uiso       1.00
        C2          C  0.3359100  0.0513900  0.2400700    0.00000       Uiso       1.00
        C3          C  0.3002100  0.0612500  0.2725300    0.00000       Uiso       1.00
        C4          C  0.2698900  0.0992100  0.2653300    0.00000       Uiso       1.00
        C5          C  0.2749600  0.1278800  0.2254900    0.00000       Uiso       1.00
        C6          C  0.3106200  0.1178300  0.1929000    0.00000       Uiso       1.00
        H7          H  0.3674800  0.0724200  0.1740700    0.00000       Uiso       1.00
        H8          H  0.2957500  0.0394900  0.3034500    0.00000       Uiso       1.00
        H9          H  0.2426300  0.1060700  0.2910000    0.00000       Uiso       1.00
       H10          H  0.3151700  0.1392000  0.1617100    0.00000       Uiso       1.00
       B11          B  0.2410200  0.1705200  0.2173100    0.00000       Uiso       1.00
       O12          O  0.2017300  0.1773800  0.2497900    0.00000       Uiso       1.00
       C13          C  0.8407000  0.5796600  0.7000100    0.00000       Uiso       1.00
       C14          C  0.8359100  0.5513900  0.7400700    0.00000       Uiso       1.00
       C15          C  0.8002100  0.5612500  0.7725301    0.00000       Uiso       1.00
       C16          C  0.7698900  0.5992101  0.7653300    0.00000       Uiso       1.00
       C17          C  0.7749600  0.6278800  0.7254900    0.00000       Uiso       1.00
       C18          C  0.8106200  0.6178300  0.6929001    0.00000       Uiso       1.00
       H19          H  0.8674800  0.5724200  0.6740701    0.00000       Uiso       1.00
       H20          H  0.7957500  0.5394900  0.8034500    0.00000       Uiso       1.00
       H21          H  0.7426300  0.6060700  0.7910000    0.00000       Uiso       1.00
       H22          H  0.8151699  0.6392000  0.6617100    0.00000       Uiso       1.00
       B23          B  0.7410200  0.6705200  0.7173100    0.00000       Uiso       1.00
       O24          O  0.7017300  0.6773800  0.7497900    0.00000       Uiso       1.00
       C25          C  0.1593000  0.9203400  0.7000100    0.00000       Uiso       1.00
       C26          C  0.1640900  0.9486100  0.7400700    0.00000       Uiso       1.00
       C27          C  0.1997900  0.9387500  0.7725301    0.00000       Uiso       1.00
       C28          C  0.2301100  0.9007899  0.7653300    0.00000       Uiso       1.00
       C29          C  0.2250400  0.8721200  0.7254900    0.00000       Uiso       1.00
       C30          C  0.1893800  0.8821700  0.6929001    0.00000       Uiso       1.00
       H31          H  0.1325200  0.9275800  0.6740701    0.00000       Uiso       1.00
       H32          H  0.2042500  0.9605100  0.8034500    0.00000       Uiso       1.00
       H33          H  0.2573700  0.8939300  0.7910000    0.00000       Uiso       1.00
       H34          H  0.1848300  0.8608000  0.6617100    0.00000       Uiso       1.00
       B35          B  0.2589800  0.8294800  0.7173100    0.00000       Uiso       1.00
       O36          O  0.2982700  0.8226200  0.7497900    0.00000       Uiso       1.00
       C37          C  0.6593000  0.4203400  0.2000100    0.00000       Uiso       1.00
       C38          C  0.6640900  0.4486100  0.2400700    0.00000       Uiso       1.00
       C39          C  0.6997900  0.4387500  0.2725300    0.00000       Uiso       1.00
       C40          C  0.7301100  0.4007900  0.2653300    0.00000       Uiso       1.00
       C41          C  0.7250400  0.3721200  0.2254900    0.00000       Uiso       1.00
       C42          C  0.6893800  0.3821700  0.1929000    0.00000       Uiso       1.00
       H43          H  0.6325200  0.4275800  0.1740700    0.00000       Uiso       1.00
       H44          H  0.7042500  0.4605100  0.3034500    0.00000       Uiso       1.00
       H45          H  0.7573700  0.3939300  0.2910000    0.00000       Uiso       1.00
       H46          H  0.6848301  0.3608000  0.1617100    0.00000       Uiso       1.00
       B47          B  0.7589800  0.3294800  0.2173100    0.00000       Uiso       1.00
       O48          O  0.7982700  0.3226200  0.2497900    0.00000       Uiso       1.00
       C49          C  0.6593000  0.5796600  0.2999900    0.00000       Uiso       1.00
       C50          C  0.6640900  0.5513900  0.2599300    0.00000       Uiso       1.00
       C51          C  0.6997900  0.5612500  0.2274700    0.00000       Uiso       1.00
       C52          C  0.7301100  0.5992101  0.2346700    0.00000       Uiso       1.00
       C53          C  0.7250400  0.6278800  0.2745100    0.00000       Uiso       1.00
       C54          C  0.6893800  0.6178300  0.3071000    0.00000       Uiso       1.00
       H55          H  0.6325200  0.5724200  0.3259300    0.00000       Uiso       1.00
       H56          H  0.7042500  0.5394900  0.1965500    0.00000       Uiso       1.00
       H57          H  0.7573700  0.6060700  0.2090000    0.00000       Uiso       1.00
       H58          H  0.6848301  0.6392000  0.3382900    0.00000       Uiso       1.00
       B59          B  0.7589800  0.6705200  0.2826900    0.00000       Uiso       1.00
       O60          O  0.7982700  0.6773800  0.2502100    0.00000       Uiso       1.00
       C61          C  0.1593000  0.0796600  0.7999900    0.00000       Uiso       1.00
       C62          C  0.1640900  0.0513900  0.7599300    0.00000       Uiso       1.00
       C63          C  0.1997900  0.0612500  0.7274699    0.00000       Uiso       1.00
       C64          C  0.2301100  0.0992100  0.7346700    0.00000       Uiso       1.00
       C65          C  0.2250400  0.1278800  0.7745100    0.00000       Uiso       1.00
       C66          C  0.1893800  0.1178300  0.8070999    0.00000       Uiso       1.00
       H67          H  0.1325200  0.0724200  0.8259299    0.00000       Uiso       1.00
       H68          H  0.2042500  0.0394900  0.6965500    0.00000       Uiso       1.00
       H69          H  0.2573700  0.1060700  0.7090000    0.00000       Uiso       1.00
       H70          H  0.1848300  0.1392000  0.8382900    0.00000       Uiso       1.00
       B71          B  0.2589800  0.1705200  0.7826900    0.00000       Uiso       1.00
       O72          O  0.2982700  0.1773800  0.7502100    0.00000       Uiso       1.00
       C73          C  0.8407000  0.4203400  0.7999900    0.00000       Uiso       1.00
       C74          C  0.8359100  0.4486100  0.7599300    0.00000       Uiso       1.00
       C75          C  0.8002100  0.4387500  0.7274699    0.00000       Uiso       1.00
       C76          C  0.7698900  0.4007900  0.7346700    0.00000       Uiso       1.00
       C77          C  0.7749600  0.3721200  0.7745100    0.00000       Uiso       1.00
       C78          C  0.8106200  0.3821700  0.8070999    0.00000       Uiso       1.00
       H79          H  0.8674800  0.4275800  0.8259299    0.00000       Uiso       1.00
       H80          H  0.7957500  0.4605100  0.6965500    0.00000       Uiso       1.00
       H81          H  0.7426300  0.3939300  0.7090000    0.00000       Uiso       1.00
       H82          H  0.8151699  0.3608000  0.8382900    0.00000       Uiso       1.00
       B83          B  0.7410200  0.3294800  0.7826900    0.00000       Uiso       1.00
       O84          O  0.7017300  0.3226200  0.7502100    0.00000       Uiso       1.00
       C85          C  0.3407000  0.9203400  0.2999900    0.00000       Uiso       1.00
       C86          C  0.3359100  0.9486100  0.2599300    0.00000       Uiso       1.00
       C87          C  0.3002100  0.9387500  0.2274700    0.00000       Uiso       1.00
       C88          C  0.2698900  0.9007899  0.2346700    0.00000       Uiso       1.00
       C89          C  0.2749600  0.8721200  0.2745100    0.00000       Uiso       1.00
       C90          C  0.3106200  0.8821700  0.3071000    0.00000       Uiso       1.00
       H91          H  0.3674800  0.9275800  0.3259300    0.00000       Uiso       1.00
       H92          H  0.2957500  0.9605100  0.1965500    0.00000       Uiso       1.00
       H93          H  0.2426300  0.8939300  0.2090000    0.00000       Uiso       1.00
       H94          H  0.3151700  0.8608000  0.3382900    0.00000       Uiso       1.00
       B95          B  0.2410200  0.8294800  0.2826900    0.00000       Uiso       1.00
       O96          O  0.2017300  0.8226200  0.2502100    0.00000       Uiso       1.00
       C97          C  0.2000100  0.3407000  0.0796600    0.00000       Uiso       1.00
       C98          C  0.2400700  0.3359100  0.0513900    0.00000       Uiso       1.00
       C99          C  0.2725300  0.3002100  0.0612500    0.00000       Uiso       1.00
      C100          C  0.2653300  0.2698900  0.0992100    0.00000       Uiso       1.00
      C101          C  0.2254900  0.2749600  0.1278800    0.00000       Uiso       1.00
      C102          C  0.1929000  0.3106200  0.1178300    0.00000       Uiso       1.00
      H103          H  0.1740700  0.3674800  0.0724200    0.00000       Uiso       1.00
      H104          H  0.3034500  0.2957500  0.0394900    0.00000       Uiso       1.00
      H105          H  0.2910000  0.2426300  0.1060700    0.00000       Uiso       1.00
      H106          H  0.1617100  0.3151700  0.1392000    0.00000       Uiso       1.00
      B107          B  0.2173100  0.2410200  0.1705200    0.00000       Uiso       1.00
      O108          O  0.2497900  0.2017300  0.1773800    0.00000       Uiso       1.00
      C109          C  0.7000100  0.8407000  0.5796600    0.00000       Uiso       1.00
      C110          C  0.7400700  0.8359100  0.5513900    0.00000       Uiso       1.00
      C111          C  0.7725301  0.8002100  0.5612500    0.00000       Uiso       1.00
      C112          C  0.7653300  0.7698900  0.5992101    0.00000       Uiso       1.00
      C113          C  0.7254900  0.7749600  0.6278800    0.00000       Uiso       1.00
      C114          C  0.6929001  0.8106200  0.6178300    0.00000       Uiso       1.00
      H115          H  0.6740701  0.8674800  0.5724200    0.00000       Uiso       1.00
      H116          H  0.8034500  0.7957500  0.5394900    0.00000       Uiso       1.00
      H117          H  0.7910000  0.7426300  0.6060700    0.00000       Uiso       1.00
      H118          H  0.6617100  0.8151699  0.6392000    0.00000       Uiso       1.00
      B119          B  0.7173100  0.7410200  0.6705200    0.00000       Uiso       1.00
      O120          O  0.7497900  0.7017300  0.6773800    0.00000       Uiso       1.00
      C121          C  0.7000100  0.1593000  0.9203400    0.00000       Uiso       1.00
      C122          C  0.7400700  0.1640900  0.9486100    0.00000       Uiso       1.00
      C123          C  0.7725301  0.1997900  0.9387500    0.00000       Uiso       1.00
      C124          C  0.7653300  0.2301100  0.9007899    0.00000       Uiso       1.00
      C125          C  0.7254900  0.2250400  0.8721200    0.00000       Uiso       1.00
      C126          C  0.6929001  0.1893800  0.8821700    0.00000       Uiso       1.00
      H127          H  0.6740701  0.1325200  0.9275800    0.00000       Uiso       1.00
      H128          H  0.8034500  0.2042500  0.9605100    0.00000       Uiso       1.00
      H129          H  0.7910000  0.2573700  0.8939300    0.00000       Uiso       1.00
      H130          H  0.6617100  0.1848300  0.8608000    0.00000       Uiso       1.00
      B131          B  0.7173100  0.2589800  0.8294800    0.00000       Uiso       1.00
      O132          O  0.7497900  0.2982700  0.8226200    0.00000       Uiso       1.00
      C133          C  0.2000100  0.6593000  0.4203400    0.00000       Uiso       1.00
      C134          C  0.2400700  0.6640900  0.4486100    0.00000       Uiso       1.00
      C135          C  0.2725300  0.6997900  0.4387500    0.00000       Uiso       1.00
      C136          C  0.2653300  0.7301100  0.4007900    0.00000       Uiso       1.00
      C137          C  0.2254900  0.7250400  0.3721200    0.00000       Uiso       1.00
      C138          C  0.1929000  0.6893800  0.3821700    0.00000       Uiso       1.00
      H139          H  0.1740700  0.6325200  0.4275800    0.00000       Uiso       1.00
      H140          H  0.3034500  0.7042500  0.4605100    0.00000       Uiso       1.00
      H141          H  0.2910000  0.7573700  0.3939300    0.00000       Uiso       1.00
      H142          H  0.1617100  0.6848301  0.3608000    0.00000       Uiso       1.00
      B143          B  0.2173100  0.7589800  0.3294800    0.00000       Uiso       1.00
      O144          O  0.2497900  0.7982700  0.3226200    0.00000       Uiso       1.00
      C145          C  0.2999900  0.6593000  0.5796600    0.00000       Uiso       1.00
      C146          C  0.2599300  0.6640900  0.5513900    0.00000       Uiso       1.00
      C147          C  0.2274700  0.6997900  0.5612500    0.00000       Uiso       1.00
      C148          C  0.2346700  0.7301100  0.5992101    0.00000       Uiso       1.00
      C149          C  0.2745100  0.7250400  0.6278800    0.00000       Uiso       1.00
      C150          C  0.3071000  0.6893800  0.6178300    0.00000       Uiso       1.00
      H151          H  0.3259300  0.6325200  0.5724200    0.00000       Uiso       1.00
      H152          H  0.1965500  0.7042500  0.5394900    0.00000       Uiso       1.00
      H153          H  0.2090000  0.7573700  0.6060700    0.00000       Uiso       1.00
      H154          H  0.3382900  0.6848301  0.6392000    0.00000       Uiso       1.00
      B155          B  0.2826900  0.7589800  0.6705200    0.00000       Uiso       1.00
      O156          O  0.2502100  0.7982700  0.6773800    0.00000       Uiso       1.00
      C157          C  0.7999900  0.1593000  0.0796600    0.00000       Uiso       1.00
      C158          C  0.7599300  0.1640900  0.0513900    0.00000       Uiso       1.00
      C159          C  0.7274699  0.1997900  0.0612500    0.00000       Uiso       1.00
      C160          C  0.7346700  0.2301100  0.0992100    0.00000       Uiso       1.00
      C161          C  0.7745100  0.2250400  0.1278800    0.00000       Uiso       1.00
      C162          C  0.8070999  0.1893800  0.1178300    0.00000       Uiso       1.00
      H163          H  0.8259299  0.1325200  0.0724200    0.00000       Uiso       1.00
      H164          H  0.6965500  0.2042500  0.0394900    0.00000       Uiso       1.00
      H165          H  0.7090000  0.2573700  0.1060700    0.00000       Uiso       1.00
      H166          H  0.8382900  0.1848300  0.1392000    0.00000       Uiso       1.00
      B167          B  0.7826900  0.2589800  0.1705200    0.00000       Uiso       1.00
      O168          O  0.7502100  0.2982700  0.1773800    0.00000       Uiso       1.00
      C169          C  0.7999900  0.8407000  0.4203400    0.00000       Uiso       1.00
      C170          C  0.7599300  0.8359100  0.4486100    0.00000       Uiso       1.00
      C171          C  0.7274699  0.8002100  0.4387500    0.00000       Uiso       1.00
      C172          C  0.7346700  0.7698900  0.4007900    0.00000       Uiso       1.00
      C173          C  0.7745100  0.7749600  0.3721200    0.00000       Uiso       1.00
      C174          C  0.8070999  0.8106200  0.3821700    0.00000       Uiso       1.00
      H175          H  0.8259299  0.8674800  0.4275800    0.00000       Uiso       1.00
      H176          H  0.6965500  0.7957500  0.4605100    0.00000       Uiso       1.00
      H177          H  0.7090000  0.7426300  0.3939300    0.00000       Uiso       1.00
      H178          H  0.8382900  0.8151699  0.3608000    0.00000       Uiso       1.00
      B179          B  0.7826900  0.7410200  0.3294800    0.00000       Uiso       1.00
      O180          O  0.7502100  0.7017300  0.3226200    0.00000       Uiso       1.00
      C181          C  0.2999900  0.3407000  0.9203400    0.00000       Uiso       1.00
      C182          C  0.2599300  0.3359100  0.9486100    0.00000       Uiso       1.00
      C183          C  0.2274700  0.3002100  0.9387500    0.00000       Uiso       1.00
      C184          C  0.2346700  0.2698900  0.9007899    0.00000       Uiso       1.00
      C185          C  0.2745100  0.2749600  0.8721200    0.00000       Uiso       1.00
      C186          C  0.3071000  0.3106200  0.8821700    0.00000       Uiso       1.00
      H187          H  0.3259300  0.3674800  0.9275800    0.00000       Uiso       1.00
      H188          H  0.1965500  0.2957500  0.9605100    0.00000       Uiso       1.00
      H189          H  0.2090000  0.2426300  0.8939300    0.00000       Uiso       1.00
      H190          H  0.3382900  0.3151700  0.8608000    0.00000       Uiso       1.00
      B191          B  0.2826900  0.2410200  0.8294800    0.00000       Uiso       1.00
      O192          O  0.2502100  0.2017300  0.8226200    0.00000       Uiso       1.00
      C193          C  0.0796600  0.2000100  0.3407000    0.00000       Uiso       1.00
      C194          C  0.0513900  0.2400700  0.3359100    0.00000       Uiso       1.00
      C195          C  0.0612500  0.2725300  0.3002100    0.00000       Uiso       1.00
      C196          C  0.0992100  0.2653300  0.2698900    0.00000       Uiso       1.00
      C197          C  0.1278800  0.2254900  0.2749600    0.00000       Uiso       1.00
      C198          C  0.1178300  0.1929000  0.3106200    0.00000       Uiso       1.00
      H199          H  0.0724200  0.1740700  0.3674800    0.00000       Uiso       1.00
      H200          H  0.0394900  0.3034500  0.2957500    0.00000       Uiso       1.00
      H201          H  0.1060700  0.2910000  0.2426300    0.00000       Uiso       1.00
      H202          H  0.1392000  0.1617100  0.3151700    0.00000       Uiso       1.00
      B203          B  0.1705200  0.2173100  0.2410200    0.00000       Uiso       1.00
      O204          O  0.1773800  0.2497900  0.2017300    0.00000       Uiso       1.00
      C205          C  0.5796600  0.7000100  0.8407000    0.00000       Uiso       1.00
      C206          C  0.5513900  0.7400700  0.8359100    0.00000       Uiso       1.00
      C207          C  0.5612500  0.7725301  0.8002100    0.00000       Uiso       1.00
      C208          C  0.5992101  0.7653300  0.7698900    0.00000       Uiso       1.00
      C209          C  0.6278800  0.7254900  0.7749600    0.00000       Uiso       1.00
      C210          C  0.6178300  0.6929001  0.8106200    0.00000       Uiso       1.00
      H211          H  0.5724200  0.6740701  0.8674800    0.00000       Uiso       1.00
      H212          H  0.5394900  0.8034500  0.7957500    0.00000       Uiso       1.00
      H213          H  0.6060700  0.7910000  0.7426300    0.00000       Uiso       1.00
      H214          H  0.6392000  0.6617100  0.8151699    0.00000       Uiso       1.00
      B215          B  0.6705200  0.7173100  0.7410200    0.00000       Uiso       1.00
      O216          O  0.6773800  0.7497900  0.7017300    0.00000       Uiso       1.00
      C217          C  0.9203400  0.7000100  0.1593000    0.00000       Uiso       1.00
      C218          C  0.9486100  0.7400700  0.1640900    0.00000       Uiso       1.00
      C219          C  0.9387500  0.7725301  0.1997900    0.00000       Uiso       1.00
      C220          C  0.9007899  0.7653300  0.2301100    0.00000       Uiso       1.00
      C221          C  0.8721200  0.7254900  0.2250400    0.00000       Uiso       1.00
      C222          C  0.8821700  0.6929001  0.1893800    0.00000       Uiso       1.00
      H223          H  0.9275800  0.6740701  0.1325200    0.00000       Uiso       1.00
      H224          H  0.9605100  0.8034500  0.2042500    0.00000       Uiso       1.00
      H225          H  0.8939300  0.7910000  0.2573700    0.00000       Uiso       1.00
      H226          H  0.8608000  0.6617100  0.1848300    0.00000       Uiso       1.00
      B227          B  0.8294800  0.7173100  0.2589800    0.00000       Uiso       1.00
      O228          O  0.8226200  0.7497900  0.2982700    0.00000       Uiso       1.00
      C229          C  0.4203400  0.2000100  0.6593000    0.00000       Uiso       1.00
      C230          C  0.4486100  0.2400700  0.6640900    0.00000       Uiso       1.00
      C231          C  0.4387500  0.2725300  0.6997900    0.00000       Uiso       1.00
      C232          C  0.4007900  0.2653300  0.7301100    0.00000       Uiso       1.00
      C233          C  0.3721200  0.2254900  0.7250400    0.00000       Uiso       1.00
      C234          C  0.3821700  0.1929000  0.6893800    0.00000       Uiso       1.00
      H235          H  0.4275800  0.1740700  0.6325200    0.00000       Uiso       1.00
      H236          H  0.4605100  0.3034500  0.7042500    0.00000       Uiso       1.00
      H237          H  0.3939300  0.2910000  0.7573700    0.00000       Uiso       1.00
      H238          H  0.3608000  0.1617100  0.6848301    0.00000       Uiso       1.00
      B239          B  0.3294800  0.2173100  0.7589800    0.00000       Uiso       1.00
      O240          O  0.3226200  0.2497900  0.7982700    0.00000       Uiso       1.00
      C241          C  0.5796600  0.2999900  0.6593000    0.00000       Uiso       1.00
      C242          C  0.5513900  0.2599300  0.6640900    0.00000       Uiso       1.00
      C243          C  0.5612500  0.2274700  0.6997900    0.00000       Uiso       1.00
      C244          C  0.5992101  0.2346700  0.7301100    0.00000       Uiso       1.00
      C245          C  0.6278800  0.2745100  0.7250400    0.00000       Uiso       1.00
      C246          C  0.6178300  0.3071000  0.6893800    0.00000       Uiso       1.00
      H247          H  0.5724200  0.3259300  0.6325200    0.00000       Uiso       1.00
      H248          H  0.5394900  0.1965500  0.7042500    0.00000       Uiso       1.00
      H249          H  0.6060700  0.2090000  0.7573700    0.00000       Uiso       1.00
      H250          H  0.6392000  0.3382900  0.6848301    0.00000       Uiso       1.00
      B251          B  0.6705200  0.2826900  0.7589800    0.00000       Uiso       1.00
      O252          O  0.6773800  0.2502100  0.7982700    0.00000       Uiso       1.00
      C253          C  0.0796600  0.7999900  0.1593000    0.00000       Uiso       1.00
      C254          C  0.0513900  0.7599300  0.1640900    0.00000       Uiso       1.00
      C255          C  0.0612500  0.7274699  0.1997900    0.00000       Uiso       1.00
      C256          C  0.0992100  0.7346700  0.2301100    0.00000       Uiso       1.00
      C257          C  0.1278800  0.7745100  0.2250400    0.00000       Uiso       1.00
      C258          C  0.1178300  0.8070999  0.1893800    0.00000       Uiso       1.00
      H259          H  0.0724200  0.8259299  0.1325200    0.00000       Uiso       1.00
      H260          H  0.0394900  0.6965500  0.2042500    0.00000       Uiso       1.00
      H261          H  0.1060700  0.7090000  0.2573700    0.00000       Uiso       1.00
      H262          H  0.1392000  0.8382900  0.1848300    0.00000       Uiso       1.00
      B263          B  0.1705200  0.7826900  0.2589800    0.00000       Uiso       1.00
      O264          O  0.1773800  0.7502100  0.2982700    0.00000       Uiso       1.00
      C265          C  0.4203400  0.7999900  0.8407000    0.00000       Uiso       1.00
      C266          C  0.4486100  0.7599300  0.8359100    0.00000       Uiso       1.00
      C267          C  0.4387500  0.7274699  0.8002100    0.00000       Uiso       1.00
      C268          C  0.4007900  0.7346700  0.7698900    0.00000       Uiso       1.00
      C269          C  0.3721200  0.7745100  0.7749600    0.00000       Uiso       1.00
      C270          C  0.3821700  0.8070999  0.8106200    0.00000       Uiso       1.00
      H271          H  0.4275800  0.8259299  0.8674800    0.00000       Uiso       1.00
      H272          H  0.4605100  0.6965500  0.7957500    0.00000       Uiso       1.00
      H273          H  0.3939300  0.7090000  0.7426300    0.00000       Uiso       1.00
      H274          H  0.3608000  0.8382900  0.8151699    0.00000       Uiso       1.00
      B275          B  0.3294800  0.7826900  0.7410200    0.00000       Uiso       1.00
      O276          O  0.3226200  0.7502100  0.7017300    0.00000       Uiso       1.00
      C277          C  0.9203400  0.2999900  0.3407000    0.00000       Uiso       1.00
      C278          C  0.9486100  0.2599300  0.3359100    0.00000       Uiso       1.00
      C279          C  0.9387500  0.2274700  0.3002100    0.00000       Uiso       1.00
      C280          C  0.9007899  0.2346700  0.2698900    0.00000       Uiso       1.00
      C281          C  0.8721200  0.2745100  0.2749600    0.00000       Uiso       1.00
      C282          C  0.8821700  0.3071000  0.3106200    0.00000       Uiso       1.00
      H283          H  0.9275800  0.3259300  0.3674800    0.00000       Uiso       1.00
      H284          H  0.9605100  0.1965500  0.2957500    0.00000       Uiso       1.00
      H285          H  0.8939300  0.2090000  0.2426300    0.00000       Uiso       1.00
      H286          H  0.8608000  0.3382900  0.3151700    0.00000       Uiso       1.00
      B287          B  0.8294800  0.2826900  0.2410200    0.00000       Uiso       1.00
      O288          O  0.8226200  0.2502100  0.2017300    0.00000       Uiso       1.00
      C289          C  0.3296600  0.5907000  0.4500100    0.00000       Uiso       1.00
      C290          C  0.3013900  0.5859100  0.4900700    0.00000       Uiso       1.00
      C291          C  0.3112500  0.5502100  0.5225300    0.00000       Uiso       1.00
      C292          C  0.3492100  0.5198900  0.5153300    0.00000       Uiso       1.00
      C293          C  0.3778800  0.5249600  0.4754900    0.00000       Uiso       1.00
      C294          C  0.3678300  0.5606200  0.4429000    0.00000       Uiso       1.00
      H295          H  0.3224200  0.6174800  0.4240700    0.00000       Uiso       1.00
      H296          H  0.2894900  0.5457500  0.5534500    0.00000       Uiso       1.00
      H297          H  0.3560700  0.4926300  0.5410000    0.00000       Uiso       1.00
      H298          H  0.3892000  0.5651700  0.4117100    0.00000       Uiso       1.00
      B299          B  0.4205200  0.4910200  0.4673100    0.00000       Uiso       1.00
      O300          O  0.4273800  0.4517300  0.4997900    0.00000       Uiso       1.00
      C301          C  0.8296601  0.0907000  0.9500100    0.00000       Uiso       1.00
      C302          C  0.8013900  0.0859100  0.9900700    0.00000       Uiso       1.00
      C303          C  0.8112500  0.0502100  0.0225300    0.00000       Uiso       1.00
      C304          C  0.8492100  0.0198900  0.0153300    0.00000       Uiso       1.00
      C305          C  0.8778800  0.0249600  0.9754900    0.00000       Uiso       1.00
      C306          C  0.8678300  0.0606200  0.9429000    0.00000       Uiso       1.00
      H307          H  0.8224200  0.1174800  0.9240700    0.00000       Uiso       1.00
      H308          H  0.7894900  0.0457500  0.0534500    0.00000       Uiso       1.00
      H309          H  0.8560700  0.9926300  0.0410000    0.00000       Uiso       1.00
      H310          H  0.8892000  0.0651700  0.9117100    0.00000       Uiso       1.00
      B311          B  0.9205200  0.9910200  0.9673101    0.00000       Uiso       1.00
      O312          O  0.9273800  0.9517300  0.9997900    0.00000       Uiso       1.00
      C313          C  0.1703400  0.4093000  0.9500100    0.00000       Uiso       1.00
      C314          C  0.1986100  0.4140900  0.9900700    0.00000       Uiso       1.00
      C315          C  0.1887500  0.4497900  0.0225300    0.00000       Uiso       1.00
      C316          C  0.1507900  0.4801100  0.0153300    0.00000       Uiso       1.00
      C317          C  0.1221200  0.4750400  0.9754900    0.00000       Uiso       1.00
      C318          C  0.1321700  0.4393800  0.9429000    0.00000       Uiso       1.00
      H319          H  0.1775800  0.3825200  0.9240700    0.00000       Uiso       1.00
      H320          H  0.2105100  0.4542500  0.0534500    0.00000       Uiso       1.00
      H321          H  0.1439300  0.5073700  0.0410000    0.00000       Uiso       1.00
      H322          H  0.1108000  0.4348300  0.9117100    0.00000       Uiso       1.00
      B323          B  0.0794800  0.5089800  0.9673101    0.00000       Uiso       1.00
      O324          O  0.0726200  0.5482700  0.9997900    0.00000       Uiso       1.00
      C325          C  0.6703399  0.9093000  0.4500100    0.00000       Uiso       1.00
      C326          C  0.6986100  0.9140900  0.4900700    0.00000       Uiso       1.00
      C327          C  0.6887500  0.9497900  0.5225300    0.00000       Uiso       1.00
      C328          C  0.6507900  0.9801100  0.5153300    0.00000       Uiso       1.00
      C329          C  0.6221200  0.9750400  0.4754900    0.00000       Uiso       1.00
      C330          C  0.6321700  0.9393800  0.4429000    0.00000       Uiso       1.00
      H331          H  0.6775800  0.8825200  0.4240700    0.00000       Uiso       1.00
      H332          H  0.7105100  0.9542500  0.5534500    0.00000       Uiso       1.00
      H333          H  0.6439300  0.0073700  0.5410000    0.00000       Uiso       1.00
      H334          H  0.6108000  0.9348300  0.4117100    0.00000       Uiso       1.00
      B335          B  0.5794800  0.0089800  0.4673100    0.00000       Uiso       1.00
      O336          O  0.5726200  0.0482700  0.4997900    0.00000       Uiso       1.00
      C337          C  0.8296601  0.9093000  0.5499900    0.00000       Uiso       1.00
      C338          C  0.8013900  0.9140900  0.5099300    0.00000       Uiso       1.00
      C339          C  0.8112500  0.9497900  0.4774700    0.00000       Uiso       1.00
      C340          C  0.8492100  0.9801100  0.4846700    0.00000       Uiso       1.00
      C341          C  0.8778800  0.9750400  0.5245100    0.00000       Uiso       1.00
      C342          C  0.8678300  0.9393800  0.5571000    0.00000       Uiso       1.00
      H343          H  0.8224200  0.8825200  0.5759300    0.00000       Uiso       1.00
      H344          H  0.7894900  0.9542500  0.4465500    0.00000       Uiso       1.00
      H345          H  0.8560700  0.0073700  0.4590000    0.00000       Uiso       1.00
      H346          H  0.8892000  0.9348300  0.5882900    0.00000       Uiso       1.00
      B347          B  0.9205200  0.0089800  0.5326900    0.00000       Uiso       1.00
      O348          O  0.9273800  0.0482700  0.5002100    0.00000       Uiso       1.00
      C349          C  0.3296600  0.4093000  0.0499900    0.00000       Uiso       1.00
      C350          C  0.3013900  0.4140900  0.0099300    0.00000       Uiso       1.00
      C351          C  0.3112500  0.4497900  0.9774700    0.00000       Uiso       1.00
      C352          C  0.3492100  0.4801100  0.9846700    0.00000       Uiso       1.00
      C353          C  0.3778800  0.4750400  0.0245100    0.00000       Uiso       1.00
      C354          C  0.3678300  0.4393800  0.0571000    0.00000       Uiso       1.00
      H355          H  0.3224200  0.3825200  0.0759300    0.00000       Uiso       1.00
      H356          H  0.2894900  0.4542500  0.9465500    0.00000       Uiso       1.00
      H357          H  0.3560700  0.5073700  0.9590000    0.00000       Uiso       1.00
      H358          H  0.3892000  0.4348300  0.0882900    0.00000       Uiso       1.00
      B359          B  0.4205200  0.5089800  0.0326900    0.00000       Uiso       1.00
      O360          O  0.4273800  0.5482700  0.0002100    0.00000       Uiso       1.00
      C361          C  0.6703399  0.0907000  0.0499900    0.00000       Uiso       1.00
      C362          C  0.6986100  0.0859100  0.0099300    0.00000       Uiso       1.00
      C363          C  0.6887500  0.0502100  0.9774700    0.00000       Uiso       1.00
      C364          C  0.6507900  0.0198900  0.9846700    0.00000       Uiso       1.00
      C365          C  0.6221200  0.0249600  0.0245100    0.00000       Uiso       1.00
      C366          C  0.6321700  0.0606200  0.0571000    0.00000       Uiso       1.00
      H367          H  0.6775800  0.1174800  0.0759300    0.00000       Uiso       1.00
      H368          H  0.7105100  0.0457500  0.9465500    0.00000       Uiso       1.00
      H369          H  0.6439300  0.9926300  0.9590000    0.00000       Uiso       1.00
      H370          H  0.6108000  0.0651700  0.0882900    0.00000       Uiso       1.00
      B371          B  0.5794800  0.9910200  0.0326900    0.00000       Uiso       1.00
      O372          O  0.5726200  0.9517300  0.0002100    0.00000       Uiso       1.00
      C373          C  0.1703400  0.5907000  0.5499900    0.00000       Uiso       1.00
      C374          C  0.1986100  0.5859100  0.5099300    0.00000       Uiso       1.00
      C375          C  0.1887500  0.5502100  0.4774700    0.00000       Uiso       1.00
      C376          C  0.1507900  0.5198900  0.4846700    0.00000       Uiso       1.00
      C377          C  0.1221200  0.5249600  0.5245100    0.00000       Uiso       1.00
      C378          C  0.1321700  0.5606200  0.5571000    0.00000       Uiso       1.00
      H379          H  0.1775800  0.6174800  0.5759300    0.00000       Uiso       1.00
      H380          H  0.2105100  0.5457500  0.4465500    0.00000       Uiso       1.00
      H381          H  0.1439300  0.4926300  0.4590000    0.00000       Uiso       1.00
      H382          H  0.1108000  0.5651700  0.5882900    0.00000       Uiso       1.00
      B383          B  0.0794800  0.4910200  0.5326900    0.00000       Uiso       1.00
      O384          O  0.0726200  0.4517300  0.5002100    0.00000       Uiso       1.00
      C385          C  0.5907000  0.4500100  0.3296600    0.00000       Uiso       1.00
      C386          C  0.5859100  0.4900700  0.3013900    0.00000       Uiso       1.00
      C387          C  0.5502100  0.5225300  0.3112500    0.00000       Uiso       1.00
      C388          C  0.5198900  0.5153300  0.3492100    0.00000       Uiso       1.00
      C389          C  0.5249600  0.4754900  0.3778800    0.00000       Uiso       1.00
      C390          C  0.5606200  0.4429000  0.3678300    0.00000       Uiso       1.00
      H391          H  0.6174800  0.4240700  0.3224200    0.00000       Uiso       1.00
      H392          H  0.5457500  0.5534500  0.2894900    0.00000       Uiso       1.00
      H393          H  0.4926300  0.5410000  0.3560700    0.00000       Uiso       1.00
      H394          H  0.5651700  0.4117100  0.3892000    0.00000       Uiso       1.00
      B395          B  0.4910200  0.4673100  0.4205200    0.00000       Uiso       1.00
      O396          O  0.4517300  0.4997900  0.4273800    0.00000       Uiso       1.00
      C397          C  0.0907000  0.9500100  0.8296601    0.00000       Uiso       1.00
      C398          C  0.0859100  0.9900700  0.8013900    0.00000       Uiso       1.00
      C399          C  0.0502100  0.0225300  0.8112500    0.00000       Uiso       1.00
      C400          C  0.0198900  0.0153300  0.8492100    0.00000       Uiso       1.00
      C401          C  0.0249600  0.9754900  0.8778800    0.00000       Uiso       1.00
      C402          C  0.0606200  0.9429000  0.8678300    0.00000       Uiso       1.00
      H403          H  0.1174800  0.9240700  0.8224200    0.00000       Uiso       1.00
      H404          H  0.0457500  0.0534500  0.7894900    0.00000       Uiso       1.00
      H405          H  0.9926300  0.0410000  0.8560700    0.00000       Uiso       1.00
      H406          H  0.0651700  0.9117100  0.8892000    0.00000       Uiso       1.00
      B407          B  0.9910200  0.9673101  0.9205200    0.00000       Uiso       1.00
      O408          O  0.9517300  0.9997900  0.9273800    0.00000       Uiso       1.00
      C409          C  0.4093000  0.9500100  0.1703400    0.00000       Uiso       1.00
      C410          C  0.4140900  0.9900700  0.1986100    0.00000       Uiso       1.00
      C411          C  0.4497900  0.0225300  0.1887500    0.00000       Uiso       1.00
      C412          C  0.4801100  0.0153300  0.1507900    0.00000       Uiso       1.00
      C413          C  0.4750400  0.9754900  0.1221200    0.00000       Uiso       1.00
      C414          C  0.4393800  0.9429000  0.1321700    0.00000       Uiso       1.00
      H415          H  0.3825200  0.9240700  0.1775800    0.00000       Uiso       1.00
      H416          H  0.4542500  0.0534500  0.2105100    0.00000       Uiso       1.00
      H417          H  0.5073700  0.0410000  0.1439300    0.00000       Uiso       1.00
      H418          H  0.4348300  0.9117100  0.1108000    0.00000       Uiso       1.00
      B419          B  0.5089800  0.9673101  0.0794800    0.00000       Uiso       1.00
      O420          O  0.5482700  0.9997900  0.0726200    0.00000       Uiso       1.00
      C421          C  0.9093000  0.4500100  0.6703399    0.00000       Uiso       1.00
      C422          C  0.9140900  0.4900700  0.6986100    0.00000       Uiso       1.00
      C423          C  0.9497900  0.5225300  0.6887500    0.00000       Uiso       1.00
      C424          C  0.9801100  0.5153300  0.6507900    0.00000       Uiso       1.00
      C425          C  0.9750400  0.4754900  0.6221200    0.00000       Uiso       1.00
      C426          C  0.9393800  0.4429000  0.6321700    0.00000       Uiso       1.00
      H427          H  0.8825200  0.4240700  0.6775800    0.00000       Uiso       1.00
      H428          H  0.9542500  0.5534500  0.7105100    0.00000       Uiso       1.00
      H429          H  0.0073700  0.5410000  0.6439300    0.00000       Uiso       1.00
      H430          H  0.9348300  0.4117100  0.6108000    0.00000       Uiso       1.00
      B431          B  0.0089800  0.4673100  0.5794800    0.00000       Uiso       1.00
      O432          O  0.0482700  0.4997900  0.5726200    0.00000       Uiso       1.00
      C433          C  0.9093000  0.5499900  0.8296601    0.00000       Uiso       1.00
      C434          C  0.9140900  0.5099300  0.8013900    0.00000       Uiso       1.00
      C435          C  0.9497900  0.4774700  0.8112500    0.00000       Uiso       1.00
      C436          C  0.9801100  0.4846700  0.8492100    0.00000       Uiso       1.00
      C437          C  0.9750400  0.5245100  0.8778800    0.00000       Uiso       1.00
      C438          C  0.9393800  0.5571000  0.8678300    0.00000       Uiso       1.00
      H439          H  0.8825200  0.5759300  0.8224200    0.00000       Uiso       1.00
      H440          H  0.9542500  0.4465500  0.7894900    0.00000       Uiso       1.00
      H441          H  0.0073700  0.4590000  0.8560700    0.00000       Uiso       1.00
      H442          H  0.9348300  0.5882900  0.8892000    0.00000       Uiso       1.00
      B443          B  0.0089800  0.5326900  0.9205200    0.00000       Uiso       1.00
      O444          O  0.0482700  0.5002100  0.9273800    0.00000       Uiso       1.00
      C445          C  0.4093000  0.0499900  0.3296600    0.00000       Uiso       1.00
      C446          C  0.4140900  0.0099300  0.3013900    0.00000       Uiso       1.00
      C447          C  0.4497900  0.9774700  0.3112500    0.00000       Uiso       1.00
      C448          C  0.4801100  0.9846700  0.3492100    0.00000       Uiso       1.00
      C449          C  0.4750400  0.0245100  0.3778800    0.00000       Uiso       1.00
      C450          C  0.4393800  0.0571000  0.3678300    0.00000       Uiso       1.00
      H451          H  0.3825200  0.0759300  0.3224200    0.00000       Uiso       1.00
      H452          H  0.4542500  0.9465500  0.2894900    0.00000       Uiso       1.00
      H453          H  0.5073700  0.9590000  0.3560700    0.00000       Uiso       1.00
      H454          H  0.4348300  0.0882900  0.3892000    0.00000       Uiso       1.00
      B455          B  0.5089800  0.0326900  0.4205200    0.00000       Uiso       1.00
      O456          O  0.5482700  0.0002100  0.4273800    0.00000       Uiso       1.00
      C457          C  0.0907000  0.0499900  0.6703399    0.00000       Uiso       1.00
      C458          C  0.0859100  0.0099300  0.6986100    0.00000       Uiso       1.00
      C459          C  0.0502100  0.9774700  0.6887500    0.00000       Uiso       1.00
      C460          C  0.0198900  0.9846700  0.6507900    0.00000       Uiso       1.00
      C461          C  0.0249600  0.0245100  0.6221200    0.00000       Uiso       1.00
      C462          C  0.0606200  0.0571000  0.6321700    0.00000       Uiso       1.00
      H463          H  0.1174800  0.0759300  0.6775800    0.00000       Uiso       1.00
      H464          H  0.0457500  0.9465500  0.7105100    0.00000       Uiso       1.00
      H465          H  0.9926300  0.9590000  0.6439300    0.00000       Uiso       1.00
      H466          H  0.0651700  0.0882900  0.6108000    0.00000       Uiso       1.00
      B467          B  0.9910200  0.0326900  0.5794800    0.00000       Uiso       1.00
      O468          O  0.9517300  0.0002100  0.5726200    0.00000       Uiso       1.00
      C469          C  0.5907000  0.5499900  0.1703400    0.00000       Uiso       1.00
      C470          C  0.5859100  0.5099300  0.1986100    0.00000       Uiso       1.00
      C471          C  0.5502100  0.4774700  0.1887500    0.00000       Uiso       1.00
      C472          C  0.5198900  0.4846700  0.1507900    0.00000       Uiso       1.00
      C473          C  0.5249600  0.5245100  0.1221200    0.00000       Uiso       1.00
      C474          C  0.5606200  0.5571000  0.1321700    0.00000       Uiso       1.00
      H475          H  0.6174800  0.5759300  0.1775800    0.00000       Uiso       1.00
      H476          H  0.5457500  0.4465500  0.2105100    0.00000       Uiso       1.00
      H477          H  0.4926300  0.4590000  0.1439300    0.00000       Uiso       1.00
      H478          H  0.5651700  0.5882900  0.1108000    0.00000       Uiso       1.00
      B479          B  0.4910200  0.5326900  0.0794800    0.00000       Uiso       1.00
      O480          O  0.4517300  0.5002100  0.0726200    0.00000       Uiso       1.00
      C481          C  0.4500100  0.3296600  0.5907000    0.00000       Uiso       1.00
      C482          C  0.4900700  0.3013900  0.5859100    0.00000       Uiso       1.00
      C483          C  0.5225300  0.3112500  0.5502100    0.00000       Uiso       1.00
      C484          C  0.5153300  0.3492100  0.5198900    0.00000       Uiso       1.00
      C485          C  0.4754900  0.3778800  0.5249600    0.00000       Uiso       1.00
      C486          C  0.4429000  0.3678300  0.5606200    0.00000       Uiso       1.00
      H487          H  0.4240700  0.3224200  0.6174800    0.00000       Uiso       1.00
      H488          H  0.5534500  0.2894900  0.5457500    0.00000       Uiso       1.00
      H489          H  0.5410000  0.3560700  0.4926300    0.00000       Uiso       1.00
      H490          H  0.4117100  0.3892000  0.5651700    0.00000       Uiso       1.00
      B491          B  0.4673100  0.4205200  0.4910200    0.00000       Uiso       1.00
      O492          O  0.4997900  0.4273800  0.4517300    0.00000       Uiso       1.00
      C493          C  0.9500100  0.8296601  0.0907000    0.00000       Uiso       1.00
      C494          C  0.9900700  0.8013900  0.0859100    0.00000       Uiso       1.00
      C495          C  0.0225300  0.8112500  0.0502100    0.00000       Uiso       1.00
      C496          C  0.0153300  0.8492100  0.0198900    0.00000       Uiso       1.00
      C497          C  0.9754900  0.8778800  0.0249600    0.00000       Uiso       1.00
      C498          C  0.9429000  0.8678300  0.0606200    0.00000       Uiso       1.00
      H499          H  0.9240700  0.8224200  0.1174800    0.00000       Uiso       1.00
      H500          H  0.0534500  0.7894900  0.0457500    0.00000       Uiso       1.00
      H501          H  0.0410000  0.8560700  0.9926300    0.00000       Uiso       1.00
      H502          H  0.9117100  0.8892000  0.0651700    0.00000       Uiso       1.00
      B503          B  0.9673101  0.9205200  0.9910200    0.00000       Uiso       1.00
      O504          O  0.9997900  0.9273800  0.9517300    0.00000       Uiso       1.00
      C505          C  0.9500100  0.1703400  0.4093000    0.00000       Uiso       1.00
      C506          C  0.9900700  0.1986100  0.4140900    0.00000       Uiso       1.00
      C507          C  0.0225300  0.1887500  0.4497900    0.00000       Uiso       1.00
      C508          C  0.0153300  0.1507900  0.4801100    0.00000       Uiso       1.00
      C509          C  0.9754900  0.1221200  0.4750400    0.00000       Uiso       1.00
      C510          C  0.9429000  0.1321700  0.4393800    0.00000       Uiso       1.00
      H511          H  0.9240700  0.1775800  0.3825200    0.00000       Uiso       1.00
      H512          H  0.0534500  0.2105100  0.4542500    0.00000       Uiso       1.00
      H513          H  0.0410000  0.1439300  0.5073700    0.00000       Uiso       1.00
      H514          H  0.9117100  0.1108000  0.4348300    0.00000       Uiso       1.00
      B515          B  0.9673101  0.0794800  0.5089800    0.00000       Uiso       1.00
      O516          O  0.9997900  0.0726200  0.5482700    0.00000       Uiso       1.00
      C517          C  0.4500100  0.6703399  0.9093000    0.00000       Uiso       1.00
      C518          C  0.4900700  0.6986100  0.9140900    0.00000       Uiso       1.00
      C519          C  0.5225300  0.6887500  0.9497900    0.00000       Uiso       1.00
      C520          C  0.5153300  0.6507900  0.9801100    0.00000       Uiso       1.00
      C521          C  0.4754900  0.6221200  0.9750400    0.00000       Uiso       1.00
      C522          C  0.4429000  0.6321700  0.9393800    0.00000       Uiso       1.00
      H523          H  0.4240700  0.6775800  0.8825200    0.00000       Uiso       1.00
      H524          H  0.5534500  0.7105100  0.9542500    0.00000       Uiso       1.00
      H525          H  0.5410000  0.6439300  0.0073700    0.00000       Uiso       1.00
      H526          H  0.4117100  0.6108000  0.9348300    0.00000       Uiso       1.00
      B527          B  0.4673100  0.5794800  0.0089800    0.00000       Uiso       1.00
      O528          O  0.4997900  0.5726200  0.0482700    0.00000       Uiso       1.00
      C529          C  0.5499900  0.8296601  0.9093000    0.00000       Uiso       1.00
      C530          C  0.5099300  0.8013900  0.9140900    0.00000       Uiso       1.00
      C531          C  0.4774700  0.8112500  0.9497900    0.00000       Uiso       1.00
      C532          C  0.4846700  0.8492100  0.9801100    0.00000       Uiso       1.00
      C533          C  0.5245100  0.8778800  0.9750400    0.00000       Uiso       1.00
      C534          C  0.5571000  0.8678300  0.9393800    0.00000       Uiso       1.00
      H535          H  0.5759300  0.8224200  0.8825200    0.00000       Uiso       1.00
      H536          H  0.4465500  0.7894900  0.9542500    0.00000       Uiso       1.00
      H537          H  0.4590000  0.8560700  0.0073700    0.00000       Uiso       1.00
      H538          H  0.5882900  0.8892000  0.9348300    0.00000       Uiso       1.00
      B539          B  0.5326900  0.9205200  0.0089800    0.00000       Uiso       1.00
      O540          O  0.5002100  0.9273800  0.0482700    0.00000       Uiso       1.00
      C541          C  0.0499900  0.3296600  0.4093000    0.00000       Uiso       1.00
      C542          C  0.0099300  0.3013900  0.4140900    0.00000       Uiso       1.00
      C543          C  0.9774700  0.3112500  0.4497900    0.00000       Uiso       1.00
      C544          C  0.9846700  0.3492100  0.4801100    0.00000       Uiso       1.00
      C545          C  0.0245100  0.3778800  0.4750400    0.00000       Uiso       1.00
      C546          C  0.0571000  0.3678300  0.4393800    0.00000       Uiso       1.00
      H547          H  0.0759300  0.3224200  0.3825200    0.00000       Uiso       1.00
      H548          H  0.9465500  0.2894900  0.4542500    0.00000       Uiso       1.00
      H549          H  0.9590000  0.3560700  0.5073700    0.00000       Uiso       1.00
      H550          H  0.0882900  0.3892000  0.4348300    0.00000       Uiso       1.00
      B551          B  0.0326900  0.4205200  0.5089800    0.00000       Uiso       1.00
      O552          O  0.0002100  0.4273800  0.5482700    0.00000       Uiso       1.00
      C553          C  0.0499900  0.6703399  0.0907000    0.00000       Uiso       1.00
      C554          C  0.0099300  0.6986100  0.0859100    0.00000       Uiso       1.00
      C555          C  0.9774700  0.6887500  0.0502100    0.00000       Uiso       1.00
      C556          C  0.9846700  0.6507900  0.0198900    0.00000       Uiso       1.00
      C557          C  0.0245100  0.6221200  0.0249600    0.00000       Uiso       1.00
      C558          C  0.0571000  0.6321700  0.0606200    0.00000       Uiso       1.00
      H559          H  0.0759300  0.6775800  0.1174800    0.00000       Uiso       1.00
      H560          H  0.9465500  0.7105100  0.0457500    0.00000       Uiso       1.00
      H561          H  0.9590000  0.6439300  0.9926300    0.00000       Uiso       1.00
      H562          H  0.0882900  0.6108000  0.0651700    0.00000       Uiso       1.00
      B563          B  0.0326900  0.5794800  0.9910200    0.00000       Uiso       1.00
      O564          O  0.0002100  0.5726200  0.9517300    0.00000       Uiso       1.00
      C565          C  0.5499900  0.1703400  0.5907000    0.00000       Uiso       1.00
      C566          C  0.5099300  0.1986100  0.5859100    0.00000       Uiso       1.00
      C567          C  0.4774700  0.1887500  0.5502100    0.00000       Uiso       1.00
      C568          C  0.4846700  0.1507900  0.5198900    0.00000       Uiso       1.00
      C569          C  0.5245100  0.1221200  0.5249600    0.00000       Uiso       1.00
      C570          C  0.5571000  0.1321700  0.5606200    0.00000       Uiso       1.00
      H571          H  0.5759300  0.1775800  0.6174800    0.00000       Uiso       1.00
      H572          H  0.4465500  0.2105100  0.5457500    0.00000       Uiso       1.00
      H573          H  0.4590000  0.1439300  0.4926300    0.00000       Uiso       1.00
      H574          H  0.5882900  0.1108000  0.5651700    0.00000       Uiso       1.00
      B575          B  0.5326900  0.0794800  0.4910200    0.00000       Uiso       1.00
      O576          O  0.5002100  0.0726200  0.4517300    0.00000       Uiso       1.00
     Si577         Si  0.3750000  0.0000000  0.2500000    0.00000       Uiso       1.00
     Si578         Si  0.1250000  0.0000000  0.7500001    0.00000       Uiso       1.00
     Si579         Si  0.6250000  0.5000000  0.2500000    0.00000       Uiso       1.00
     Si580         Si  0.8750000  0.5000000  0.7500001    0.00000       Uiso       1.00
     Si581         Si  0.2500000  0.3750000  0.0000000    0.00000       Uiso       1.00
     Si582         Si  0.7500001  0.1250000  0.0000000    0.00000       Uiso       1.00
     Si583         Si  0.2500000  0.6250000  0.5000000    0.00000       Uiso       1.00
     Si584         Si  0.7500001  0.8750000  0.5000000    0.00000       Uiso       1.00
     Si585         Si  0.0000000  0.2500000  0.3750000    0.00000       Uiso       1.00
     Si586         Si  0.0000000  0.7500001  0.1250000    0.00000       Uiso       1.00
     Si587         Si  0.5000000  0.2500000  0.6250000    0.00000       Uiso       1.00
     Si588         Si  0.5000000  0.7500001  0.8750000    0.00000       Uiso       1.00
