data_FMOF-Cu_PM
_symmetry_space_group_name_H-M	'P1'
_cell_length_a	18.723000
_cell_length_b	7.271000
_cell_length_c	20.481000
_cell_angle_alpha	90.000000
_cell_angle_beta	107.020000
_cell_angle_gamma	90.000000
_symmetry_Int_Tables_number 1

loop_
_symmetry_equiv_pos_as_xyz
'x,y,z'

loop_
_atom_site_label
_atom_site_type_symbol
_atom_site_fract_x
_atom_site_fract_y
_atom_site_fract_z
Cu	Cu	0.527900	0.146510	0.478000
Cu	Cu	0.027900	0.853490	0.978000
Cu	Cu	0.472100	0.853490	0.522000
Cu	Cu	0.972100	0.146510	0.022000
F	F	0.023890	0.253000	0.331690
F	F	0.523890	0.747000	0.831690
F	F	0.976110	0.747000	0.668310
F	F	0.476110	0.253000	0.168310
F	F	0.953650	0.476000	0.340690
F	F	0.453650	0.524000	0.840690
F	F	0.046350	0.524000	0.659310
F	F	0.546350	0.476000	0.159310
F	F	0.010350	0.318200	0.429020
F	F	0.510350	0.681800	0.929020
F	F	0.989650	0.681800	0.570980
F	F	0.489650	0.318200	0.070980
F	F	0.131190	0.794300	0.449020
F	F	0.631190	0.205700	0.949020
F	F	0.868810	0.205700	0.550980
F	F	0.368810	0.794300	0.050980
F	F	0.015440	0.733600	0.434050
F	F	0.515440	0.266400	0.934050
F	F	0.984560	0.266400	0.565950
F	F	0.484560	0.733600	0.065950
F	F	0.099980	0.570900	0.502600
F	F	0.599980	0.429100	0.002600
F	F	0.900020	0.429100	0.497400
F	F	0.400020	0.570900	0.997400
F	F	0.709130	0.041200	0.154830
F	F	0.209130	0.958800	0.654830
F	F	0.290870	0.958800	0.845170
F	F	0.790870	0.041200	0.345170
F	F	0.668300	0.102600	0.239600
F	F	0.168300	0.897400	0.739600
F	F	0.331700	0.897400	0.760400
F	F	0.831700	0.102600	0.260400
F	F	0.626060	0.869800	0.176000
F	F	0.126060	0.130200	0.676000
F	F	0.373940	0.130200	0.824000
F	F	0.873940	0.869800	0.324000
O	O	0.429110	0.258600	0.458190
O	O	0.929110	0.741400	0.958190
O	O	0.570890	0.741400	0.541810
O	O	0.070890	0.258600	0.041810
O	O	0.381650	0.014400	0.496150
O	O	0.881650	0.985600	0.996150
O	O	0.618350	0.985600	0.503850
O	O	0.118350	0.014400	0.003850
O	O	0.054020	0.770800	0.072040
O	O	0.554020	0.229200	0.572040
O	O	0.945980	0.229200	0.927960
O	O	0.445980	0.770800	0.427960
O	O	0.004730	0.017400	0.108380
O	O	0.504730	0.982600	0.608380
O	O	0.995270	0.982600	0.891620
O	O	0.495270	0.017400	0.391620
O	O	0.587460	0.355700	0.435690
O	O	0.087460	0.644300	0.935690
O	O	0.412540	0.644300	0.564310
O	O	0.912540	0.355700	0.064310
O	O	0.690660	0.196500	0.442010
O	O	0.190660	0.803500	0.942010
O	O	0.309340	0.803500	0.557990
O	O	0.809340	0.196500	0.057990
H	H	0.660500	0.098300	0.468000
H	H	0.160500	0.901700	0.968000
H	H	0.339500	0.901700	0.532000
H	H	0.839500	0.098300	0.032000
C	C	0.376300	0.174500	0.469840
C	C	0.876300	0.825500	0.969840
C	C	0.623700	0.825500	0.530160
C	C	0.123700	0.174500	0.030160
C	C	0.301110	0.265000	0.450150
C	C	0.801110	0.735000	0.950150
C	C	0.698890	0.735000	0.549850
C	C	0.198890	0.265000	0.049850
C	C	0.293090	0.438200	0.422860
C	C	0.793090	0.561800	0.922860
C	C	0.706910	0.561800	0.577140
C	C	0.206910	0.438200	0.077140
H	H	0.334700	0.501700	0.418700
H	H	0.834700	0.498300	0.918700
H	H	0.665300	0.498300	0.581300
H	H	0.165300	0.501700	0.081300
C	C	0.223780	0.518500	0.401630
C	C	0.723780	0.481500	0.901630
C	C	0.776220	0.481500	0.598370
C	C	0.276220	0.518500	0.098370
H	H	0.218700	0.635800	0.382700
H	H	0.718700	0.364200	0.882700
H	H	0.781300	0.364200	0.617300
H	H	0.281300	0.635800	0.117300
C	C	0.161400	0.427500	0.408100
C	C	0.661400	0.572500	0.908100
C	C	0.838600	0.572500	0.591900
C	C	0.338600	0.427500	0.091900
C	C	0.170600	0.255400	0.437700
C	C	0.670600	0.744600	0.937700
C	C	0.829400	0.744600	0.562300
C	C	0.329400	0.255400	0.062300
H	H	0.129700	0.194100	0.444300
H	H	0.629700	0.805900	0.944300
H	H	0.870300	0.805900	0.555700
H	H	0.370300	0.194100	0.055700
C	C	0.239800	0.173800	0.457700
C	C	0.739800	0.826200	0.957700
C	C	0.760200	0.826200	0.542300
C	C	0.260200	0.173800	0.042300
H	H	0.245100	0.056200	0.476300
H	H	0.745100	0.943800	0.976300
H	H	0.754900	0.943800	0.523700
H	H	0.254900	0.056200	0.023700
C	C	0.084600	0.524700	0.383960
C	C	0.584600	0.475300	0.883960
C	C	0.915400	0.475300	0.616040
C	C	0.415400	0.524700	0.116040
C	C	0.075530	0.625900	0.316130
C	C	0.575530	0.374100	0.816130
C	C	0.924470	0.374100	0.683870
C	C	0.424470	0.625900	0.183870
C	C	0.090300	0.527600	0.263530
C	C	0.590300	0.472400	0.763530
C	C	0.909700	0.472400	0.736470
C	C	0.409700	0.527600	0.236470
H	H	0.108200	0.408000	0.271600
H	H	0.608200	0.592000	0.771600
H	H	0.891800	0.592000	0.728400
H	H	0.391800	0.408000	0.228400
C	C	0.078800	0.603200	0.199220
C	C	0.578800	0.396800	0.699220
C	C	0.921200	0.396800	0.800780
C	C	0.421200	0.603200	0.300780
H	H	0.088100	0.533900	0.164400
H	H	0.588100	0.466100	0.664400
H	H	0.911900	0.466100	0.835600
H	H	0.411900	0.533900	0.335600
C	C	0.053530	0.782500	0.187000
C	C	0.553530	0.217500	0.687000
C	C	0.946470	0.217500	0.813000
C	C	0.446470	0.782500	0.313000
C	C	0.040020	0.881100	0.239310
C	C	0.540020	0.118900	0.739310
C	C	0.959980	0.118900	0.760690
C	C	0.459980	0.881100	0.260690
H	H	0.023500	0.002100	0.231600
H	H	0.523500	0.997900	0.731600
H	H	0.976500	0.997900	0.768400
H	H	0.476500	0.002100	0.268400
C	C	0.050300	0.804900	0.303150
C	C	0.550300	0.195100	0.803150
C	C	0.949700	0.195100	0.696850
C	C	0.449700	0.804900	0.196850
H	H	0.040200	0.874200	0.337600
H	H	0.540200	0.125800	0.837600
H	H	0.959800	0.125800	0.662400
H	H	0.459800	0.874200	0.162400
C	C	0.036200	0.863300	0.116620
C	C	0.536200	0.136700	0.616620
C	C	0.963800	0.136700	0.883380
C	C	0.463800	0.863300	0.383380
C	C	0.017800	0.392400	0.371700
C	C	0.517800	0.607600	0.871700
C	C	0.982200	0.607600	0.628300
C	C	0.482200	0.392400	0.128300
C	C	0.082600	0.658100	0.442890
C	C	0.582600	0.341900	0.942890
C	C	0.917400	0.341900	0.557110
C	C	0.417400	0.658100	0.057110
C	C	0.646500	0.339000	0.423380
C	C	0.146500	0.661000	0.923380
C	C	0.353500	0.661000	0.576620
C	C	0.853500	0.339000	0.076620
C	C	0.675450	0.476900	0.383870
C	C	0.175450	0.523100	0.883870
C	C	0.324550	0.523100	0.616130
C	C	0.824550	0.476900	0.116130
C	C	0.743200	0.450600	0.370460
C	C	0.243200	0.549400	0.870460
C	C	0.256800	0.549400	0.629540
C	C	0.756800	0.450600	0.129540
H	H	0.773600	0.352100	0.390000
H	H	0.273600	0.647900	0.890000
H	H	0.226400	0.647900	0.610000
H	H	0.726400	0.352100	0.110000
C	C	0.765400	0.570500	0.328200
C	C	0.265400	0.429500	0.828200
C	C	0.234600	0.429500	0.671800
C	C	0.734600	0.570500	0.171800
H	H	0.810300	0.550100	0.318700
H	H	0.310300	0.449900	0.818700
H	H	0.189700	0.449900	0.681300
H	H	0.689700	0.550100	0.181300
C	C	0.722300	0.720600	0.299670
C	C	0.222300	0.279400	0.799670
C	C	0.277700	0.279400	0.700330
C	C	0.777700	0.720600	0.200330
C	C	0.656900	0.751500	0.316400
C	C	0.156900	0.248500	0.816400
C	C	0.343100	0.248500	0.683600
C	C	0.843100	0.751500	0.183600
H	H	0.628300	0.855100	0.299500
H	H	0.128300	0.144900	0.799500
H	H	0.371700	0.144900	0.700500
H	H	0.871700	0.855100	0.200500
C	C	0.633500	0.631200	0.357860
C	C	0.133500	0.368800	0.857860
C	C	0.366500	0.368800	0.642140
C	C	0.866500	0.631200	0.142140
H	H	0.589300	0.653700	0.368400
H	H	0.089300	0.346300	0.868400
H	H	0.410700	0.346300	0.631600
H	H	0.910700	0.653700	0.131600
C	C	0.750000	0.842200	0.250000
C	C	0.250000	0.157800	0.750000
C	C	0.687200	0.964800	0.204900
C	C	0.187200	0.035200	0.704900
C	C	0.312800	0.035200	0.795100
C	C	0.812800	0.964800	0.295100
