data_HKUST-1_PM
_symmetry_space_group_name_H-M	'P1'
_cell_length_a	26.343000
_cell_length_b	26.343000
_cell_length_c	26.343000
_cell_angle_alpha	90.000000
_cell_angle_beta	90.000000
_cell_angle_gamma	90.000000
_symmetry_Int_Tables_number 1

loop_
_symmetry_equiv_pos_as_xyz
'x,y,z'

loop_
_atom_site_label
_atom_site_type_symbol
_atom_site_fract_x
_atom_site_fract_y
_atom_site_fract_z
Cu	Cu	0.285270	0.285270	0.000000
Cu	Cu	0.714730	0.714730	0.000000
Cu	Cu	0.714730	0.285270	0.000000
Cu	Cu	0.285270	0.714730	0.000000
Cu	Cu	0.000000	0.285270	0.285270
Cu	Cu	0.000000	0.714730	0.714730
Cu	Cu	0.000000	0.714730	0.285270
Cu	Cu	0.000000	0.285270	0.714730
Cu	Cu	0.285270	0.000000	0.285270
Cu	Cu	0.714730	0.000000	0.714730
Cu	Cu	0.285270	0.000000	0.714730
Cu	Cu	0.714730	0.000000	0.285270
Cu	Cu	0.285270	0.785270	0.500000
Cu	Cu	0.714730	0.214730	0.500000
Cu	Cu	0.714730	0.785270	0.500000
Cu	Cu	0.285270	0.214730	0.500000
Cu	Cu	0.000000	0.785270	0.785270
Cu	Cu	0.000000	0.214730	0.214730
Cu	Cu	0.000000	0.214730	0.785270
Cu	Cu	0.000000	0.785270	0.214730
Cu	Cu	0.285270	0.500000	0.785270
Cu	Cu	0.714730	0.500000	0.214730
Cu	Cu	0.285270	0.500000	0.214730
Cu	Cu	0.714730	0.500000	0.785270
Cu	Cu	0.785270	0.285270	0.500000
Cu	Cu	0.214730	0.714730	0.500000
Cu	Cu	0.214730	0.285270	0.500000
Cu	Cu	0.785270	0.714730	0.500000
Cu	Cu	0.500000	0.285270	0.785270
Cu	Cu	0.500000	0.714730	0.214730
Cu	Cu	0.500000	0.714730	0.785270
Cu	Cu	0.500000	0.285270	0.214730
Cu	Cu	0.785270	0.000000	0.785270
Cu	Cu	0.214730	0.000000	0.214730
Cu	Cu	0.785270	0.000000	0.214730
Cu	Cu	0.214730	0.000000	0.785270
Cu	Cu	0.785270	0.785270	0.000000
Cu	Cu	0.214730	0.214730	0.000000
Cu	Cu	0.214730	0.785270	0.000000
Cu	Cu	0.785270	0.214730	0.000000
Cu	Cu	0.500000	0.785270	0.285270
Cu	Cu	0.500000	0.214730	0.714730
Cu	Cu	0.500000	0.214730	0.285270
Cu	Cu	0.500000	0.785270	0.714730
Cu	Cu	0.785270	0.500000	0.285270
Cu	Cu	0.214730	0.500000	0.714730
Cu	Cu	0.785270	0.500000	0.714730
Cu	Cu	0.214730	0.500000	0.285270
O	O	0.316640	0.243130	0.947760
O	O	0.683360	0.756870	0.947760
O	O	0.683360	0.243130	0.052240
O	O	0.316640	0.756870	0.052240
O	O	0.947760	0.316640	0.243130
O	O	0.947760	0.683360	0.756870
O	O	0.052240	0.683360	0.243130
O	O	0.052240	0.316640	0.756870
O	O	0.243130	0.947760	0.316640
O	O	0.756870	0.947760	0.683360
O	O	0.243130	0.052240	0.683360
O	O	0.756870	0.052240	0.316640
O	O	0.243130	0.316640	0.052240
O	O	0.756870	0.683360	0.052240
O	O	0.243130	0.683360	0.947760
O	O	0.756870	0.316640	0.947760
O	O	0.316640	0.947760	0.756870
O	O	0.683360	0.947760	0.243130
O	O	0.683360	0.052240	0.756870
O	O	0.316640	0.052240	0.243130
O	O	0.947760	0.243130	0.683360
O	O	0.947760	0.756870	0.316640
O	O	0.052240	0.243130	0.316640
O	O	0.052240	0.756870	0.683360
O	O	0.316640	0.743130	0.447760
O	O	0.683360	0.256870	0.447760
O	O	0.683360	0.743130	0.552240
O	O	0.316640	0.256870	0.552240
O	O	0.947760	0.816640	0.743130
O	O	0.947760	0.183360	0.256870
O	O	0.052240	0.183360	0.743130
O	O	0.052240	0.816640	0.256870
O	O	0.243130	0.447760	0.816640
O	O	0.756870	0.447760	0.183360
O	O	0.243130	0.552240	0.183360
O	O	0.756870	0.552240	0.816640
O	O	0.243130	0.816640	0.552240
O	O	0.756870	0.183360	0.552240
O	O	0.243130	0.183360	0.447760
O	O	0.756870	0.816640	0.447760
O	O	0.316640	0.447760	0.256870
O	O	0.683360	0.447760	0.743130
O	O	0.683360	0.552240	0.256870
O	O	0.316640	0.552240	0.743130
O	O	0.947760	0.743130	0.183360
O	O	0.947760	0.256870	0.816640
O	O	0.052240	0.743130	0.816640
O	O	0.052240	0.256870	0.183360
O	O	0.816640	0.243130	0.447760
O	O	0.183360	0.756870	0.447760
O	O	0.183360	0.243130	0.552240
O	O	0.816640	0.756870	0.552240
O	O	0.447760	0.316640	0.743130
O	O	0.447760	0.683360	0.256870
O	O	0.552240	0.683360	0.743130
O	O	0.552240	0.316640	0.256870
O	O	0.743130	0.947760	0.816640
O	O	0.256870	0.947760	0.183360
O	O	0.743130	0.052240	0.183360
O	O	0.256870	0.052240	0.816640
O	O	0.743130	0.316640	0.552240
O	O	0.256870	0.683360	0.552240
O	O	0.743130	0.683360	0.447760
O	O	0.256870	0.316640	0.447760
O	O	0.816640	0.947760	0.256870
O	O	0.183360	0.947760	0.743130
O	O	0.183360	0.052240	0.256870
O	O	0.816640	0.052240	0.743130
O	O	0.447760	0.243130	0.183360
O	O	0.447760	0.756870	0.816640
O	O	0.552240	0.243130	0.816640
O	O	0.552240	0.756870	0.183360
O	O	0.816640	0.743130	0.947760
O	O	0.183360	0.256870	0.947760
O	O	0.183360	0.743130	0.052240
O	O	0.816640	0.256870	0.052240
O	O	0.447760	0.816640	0.243130
O	O	0.447760	0.183360	0.756870
O	O	0.552240	0.183360	0.243130
O	O	0.552240	0.816640	0.756870
O	O	0.743130	0.447760	0.316640
O	O	0.256870	0.447760	0.683360
O	O	0.743130	0.552240	0.683360
O	O	0.256870	0.552240	0.316640
O	O	0.743130	0.816640	0.052240
O	O	0.256870	0.183360	0.052240
O	O	0.743130	0.183360	0.947760
O	O	0.256870	0.816640	0.947760
O	O	0.816640	0.447760	0.756870
O	O	0.183360	0.447760	0.243130
O	O	0.183360	0.552240	0.756870
O	O	0.816640	0.552240	0.243130
O	O	0.447760	0.743130	0.683360
O	O	0.447760	0.256870	0.316640
O	O	0.552240	0.743130	0.316640
O	O	0.552240	0.256870	0.683360
O	O	0.683360	0.756870	0.052240
O	O	0.316640	0.243130	0.052240
O	O	0.316640	0.756870	0.947760
O	O	0.683360	0.243130	0.947760
O	O	0.052240	0.683360	0.756870
O	O	0.052240	0.316640	0.243130
O	O	0.947760	0.316640	0.756870
O	O	0.947760	0.683360	0.243130
O	O	0.756870	0.052240	0.683360
O	O	0.243130	0.052240	0.316640
O	O	0.756870	0.947760	0.316640
O	O	0.243130	0.947760	0.683360
O	O	0.756870	0.683360	0.947760
O	O	0.243130	0.316640	0.947760
O	O	0.756870	0.316640	0.052240
O	O	0.243130	0.683360	0.052240
O	O	0.683360	0.052240	0.243130
O	O	0.316640	0.052240	0.756870
O	O	0.316640	0.947760	0.243130
O	O	0.683360	0.947760	0.756870
O	O	0.052240	0.756870	0.316640
O	O	0.052240	0.243130	0.683360
O	O	0.947760	0.756870	0.683360
O	O	0.947760	0.243130	0.316640
O	O	0.683360	0.256870	0.552240
O	O	0.316640	0.743130	0.552240
O	O	0.316640	0.256870	0.447760
O	O	0.683360	0.743130	0.447760
O	O	0.052240	0.183360	0.256870
O	O	0.052240	0.816640	0.743130
O	O	0.947760	0.816640	0.256870
O	O	0.947760	0.183360	0.743130
O	O	0.756870	0.552240	0.183360
O	O	0.243130	0.552240	0.816640
O	O	0.756870	0.447760	0.816640
O	O	0.243130	0.447760	0.183360
O	O	0.756870	0.183360	0.447760
O	O	0.243130	0.816640	0.447760
O	O	0.756870	0.816640	0.552240
O	O	0.243130	0.183360	0.552240
O	O	0.683360	0.552240	0.743130
O	O	0.316640	0.552240	0.256870
O	O	0.316640	0.447760	0.743130
O	O	0.683360	0.447760	0.256870
O	O	0.052240	0.256870	0.816640
O	O	0.052240	0.743130	0.183360
O	O	0.947760	0.256870	0.183360
O	O	0.947760	0.743130	0.816640
O	O	0.183360	0.756870	0.552240
O	O	0.816640	0.243130	0.552240
O	O	0.816640	0.756870	0.447760
O	O	0.183360	0.243130	0.447760
O	O	0.552240	0.683360	0.256870
O	O	0.552240	0.316640	0.743130
O	O	0.447760	0.316640	0.256870
O	O	0.447760	0.683360	0.743130
O	O	0.256870	0.052240	0.183360
O	O	0.743130	0.052240	0.816640
O	O	0.256870	0.947760	0.816640
O	O	0.743130	0.947760	0.183360
O	O	0.256870	0.683360	0.447760
O	O	0.743130	0.316640	0.447760
O	O	0.256870	0.316640	0.552240
O	O	0.743130	0.683360	0.552240
O	O	0.183360	0.052240	0.743130
O	O	0.816640	0.052240	0.256870
O	O	0.816640	0.947760	0.743130
O	O	0.183360	0.947760	0.256870
O	O	0.552240	0.756870	0.816640
O	O	0.552240	0.243130	0.183360
O	O	0.447760	0.756870	0.183360
O	O	0.447760	0.243130	0.816640
O	O	0.183360	0.256870	0.052240
O	O	0.816640	0.743130	0.052240
O	O	0.816640	0.256870	0.947760
O	O	0.183360	0.743130	0.947760
O	O	0.552240	0.183360	0.756870
O	O	0.552240	0.816640	0.243130
O	O	0.447760	0.816640	0.756870
O	O	0.447760	0.183360	0.243130
O	O	0.256870	0.552240	0.683360
O	O	0.743130	0.552240	0.316640
O	O	0.256870	0.447760	0.316640
O	O	0.743130	0.447760	0.683360
O	O	0.256870	0.183360	0.947760
O	O	0.743130	0.816640	0.947760
O	O	0.256870	0.816640	0.052240
O	O	0.743130	0.183360	0.052240
O	O	0.183360	0.552240	0.243130
O	O	0.816640	0.552240	0.756870
O	O	0.816640	0.447760	0.243130
O	O	0.183360	0.447760	0.756870
O	O	0.552240	0.256870	0.316640
O	O	0.552240	0.743130	0.683360
O	O	0.447760	0.256870	0.683360
O	O	0.447760	0.743130	0.316640
C	C	0.322000	0.178000	0.887000
C	C	0.678000	0.822000	0.887000
C	C	0.678000	0.178000	0.113000
C	C	0.322000	0.822000	0.113000
C	C	0.887000	0.322000	0.178000
C	C	0.887000	0.678000	0.822000
C	C	0.113000	0.678000	0.178000
C	C	0.113000	0.322000	0.822000
C	C	0.178000	0.887000	0.322000
C	C	0.822000	0.887000	0.678000
C	C	0.178000	0.113000	0.678000
C	C	0.822000	0.113000	0.322000
C	C	0.178000	0.322000	0.113000
C	C	0.822000	0.678000	0.113000
C	C	0.178000	0.678000	0.887000
C	C	0.822000	0.322000	0.887000
C	C	0.322000	0.887000	0.822000
C	C	0.678000	0.887000	0.178000
C	C	0.678000	0.113000	0.822000
C	C	0.322000	0.113000	0.178000
C	C	0.887000	0.178000	0.678000
C	C	0.887000	0.822000	0.322000
C	C	0.113000	0.178000	0.322000
C	C	0.113000	0.822000	0.678000
C	C	0.322000	0.678000	0.387000
C	C	0.678000	0.322000	0.387000
C	C	0.678000	0.678000	0.613000
C	C	0.322000	0.322000	0.613000
C	C	0.887000	0.822000	0.678000
C	C	0.887000	0.178000	0.322000
C	C	0.113000	0.178000	0.678000
C	C	0.113000	0.822000	0.322000
C	C	0.178000	0.387000	0.822000
C	C	0.822000	0.387000	0.178000
C	C	0.178000	0.613000	0.178000
C	C	0.822000	0.613000	0.822000
C	C	0.178000	0.822000	0.613000
C	C	0.822000	0.178000	0.613000
C	C	0.178000	0.178000	0.387000
C	C	0.822000	0.822000	0.387000
C	C	0.322000	0.387000	0.322000
C	C	0.678000	0.387000	0.678000
C	C	0.678000	0.613000	0.322000
C	C	0.322000	0.613000	0.678000
C	C	0.887000	0.678000	0.178000
C	C	0.887000	0.322000	0.822000
C	C	0.113000	0.678000	0.822000
C	C	0.113000	0.322000	0.178000
C	C	0.822000	0.178000	0.387000
C	C	0.178000	0.822000	0.387000
C	C	0.178000	0.178000	0.613000
C	C	0.822000	0.822000	0.613000
C	C	0.387000	0.322000	0.678000
C	C	0.387000	0.678000	0.322000
C	C	0.613000	0.678000	0.678000
C	C	0.613000	0.322000	0.322000
C	C	0.678000	0.887000	0.822000
C	C	0.322000	0.887000	0.178000
C	C	0.678000	0.113000	0.178000
C	C	0.322000	0.113000	0.822000
C	C	0.678000	0.322000	0.613000
C	C	0.322000	0.678000	0.613000
C	C	0.678000	0.678000	0.387000
C	C	0.322000	0.322000	0.387000
C	C	0.822000	0.887000	0.322000
C	C	0.178000	0.887000	0.678000
C	C	0.178000	0.113000	0.322000
C	C	0.822000	0.113000	0.678000
C	C	0.387000	0.178000	0.178000
C	C	0.387000	0.822000	0.822000
C	C	0.613000	0.178000	0.822000
C	C	0.613000	0.822000	0.178000
C	C	0.822000	0.678000	0.887000
C	C	0.178000	0.322000	0.887000
C	C	0.178000	0.678000	0.113000
C	C	0.822000	0.322000	0.113000
C	C	0.387000	0.822000	0.178000
C	C	0.387000	0.178000	0.822000
C	C	0.613000	0.178000	0.178000
C	C	0.613000	0.822000	0.822000
C	C	0.678000	0.387000	0.322000
C	C	0.322000	0.387000	0.678000
C	C	0.678000	0.613000	0.678000
C	C	0.322000	0.613000	0.322000
C	C	0.678000	0.822000	0.113000
C	C	0.322000	0.178000	0.113000
C	C	0.678000	0.178000	0.887000
C	C	0.322000	0.822000	0.887000
C	C	0.822000	0.387000	0.822000
C	C	0.178000	0.387000	0.178000
C	C	0.178000	0.613000	0.822000
C	C	0.822000	0.613000	0.178000
C	C	0.387000	0.678000	0.678000
C	C	0.387000	0.322000	0.322000
C	C	0.613000	0.678000	0.322000
C	C	0.613000	0.322000	0.678000
C	C	0.296800	0.203200	0.931300
C	C	0.703200	0.796800	0.931300
C	C	0.703200	0.203200	0.068700
C	C	0.296800	0.796800	0.068700
C	C	0.931300	0.296800	0.203200
C	C	0.931300	0.703200	0.796800
C	C	0.068700	0.703200	0.203200
C	C	0.068700	0.296800	0.796800
C	C	0.203200	0.931300	0.296800
C	C	0.796800	0.931300	0.703200
C	C	0.203200	0.068700	0.703200
C	C	0.796800	0.068700	0.296800
C	C	0.203200	0.296800	0.068700
C	C	0.796800	0.703200	0.068700
C	C	0.203200	0.703200	0.931300
C	C	0.796800	0.296800	0.931300
C	C	0.296800	0.931300	0.796800
C	C	0.703200	0.931300	0.203200
C	C	0.703200	0.068700	0.796800
C	C	0.296800	0.068700	0.203200
C	C	0.931300	0.203200	0.703200
C	C	0.931300	0.796800	0.296800
C	C	0.068700	0.203200	0.296800
C	C	0.068700	0.796800	0.703200
C	C	0.296800	0.703200	0.431300
C	C	0.703200	0.296800	0.431300
C	C	0.703200	0.703200	0.568700
C	C	0.296800	0.296800	0.568700
C	C	0.931300	0.796800	0.703200
C	C	0.931300	0.203200	0.296800
C	C	0.068700	0.203200	0.703200
C	C	0.068700	0.796800	0.296800
C	C	0.203200	0.431300	0.796800
C	C	0.796800	0.431300	0.203200
C	C	0.203200	0.568700	0.203200
C	C	0.796800	0.568700	0.796800
C	C	0.203200	0.796800	0.568700
C	C	0.796800	0.203200	0.568700
C	C	0.203200	0.203200	0.431300
C	C	0.796800	0.796800	0.431300
C	C	0.296800	0.431300	0.296800
C	C	0.703200	0.431300	0.703200
C	C	0.703200	0.568700	0.296800
C	C	0.296800	0.568700	0.703200
C	C	0.931300	0.703200	0.203200
C	C	0.931300	0.296800	0.796800
C	C	0.068700	0.703200	0.796800
C	C	0.068700	0.296800	0.203200
C	C	0.796800	0.203200	0.431300
C	C	0.203200	0.796800	0.431300
C	C	0.203200	0.203200	0.568700
C	C	0.796800	0.796800	0.568700
C	C	0.431300	0.296800	0.703200
C	C	0.431300	0.703200	0.296800
C	C	0.568700	0.703200	0.703200
C	C	0.568700	0.296800	0.296800
C	C	0.703200	0.931300	0.796800
C	C	0.296800	0.931300	0.203200
C	C	0.703200	0.068700	0.203200
C	C	0.296800	0.068700	0.796800
C	C	0.703200	0.296800	0.568700
C	C	0.296800	0.703200	0.568700
C	C	0.703200	0.703200	0.431300
C	C	0.296800	0.296800	0.431300
C	C	0.796800	0.931300	0.296800
C	C	0.203200	0.931300	0.703200
C	C	0.203200	0.068700	0.296800
C	C	0.796800	0.068700	0.703200
C	C	0.431300	0.203200	0.203200
C	C	0.431300	0.796800	0.796800
C	C	0.568700	0.203200	0.796800
C	C	0.568700	0.796800	0.203200
C	C	0.796800	0.703200	0.931300
C	C	0.203200	0.296800	0.931300
C	C	0.203200	0.703200	0.068700
C	C	0.796800	0.296800	0.068700
C	C	0.431300	0.796800	0.203200
C	C	0.431300	0.203200	0.796800
C	C	0.568700	0.203200	0.203200
C	C	0.568700	0.796800	0.796800
C	C	0.703200	0.431300	0.296800
C	C	0.296800	0.431300	0.703200
C	C	0.703200	0.568700	0.703200
C	C	0.296800	0.568700	0.296800
C	C	0.703200	0.796800	0.068700
C	C	0.296800	0.203200	0.068700
C	C	0.703200	0.203200	0.931300
C	C	0.296800	0.796800	0.931300
C	C	0.796800	0.431300	0.796800
C	C	0.203200	0.431300	0.203200
C	C	0.203200	0.568700	0.796800
C	C	0.796800	0.568700	0.203200
C	C	0.431300	0.703200	0.703200
C	C	0.431300	0.296800	0.296800
C	C	0.568700	0.703200	0.296800
C	C	0.568700	0.296800	0.703200
C	C	0.365500	0.199400	0.865500
C	C	0.634500	0.800600	0.865500
C	C	0.634500	0.199400	0.134500
C	C	0.365500	0.800600	0.134500
C	C	0.865500	0.365500	0.199400
C	C	0.865500	0.634500	0.800600
C	C	0.134500	0.634500	0.199400
C	C	0.134500	0.365500	0.800600
C	C	0.199400	0.865500	0.365500
C	C	0.800600	0.865500	0.634500
C	C	0.199400	0.134500	0.634500
C	C	0.800600	0.134500	0.365500
C	C	0.199400	0.365500	0.134500
C	C	0.800600	0.634500	0.134500
C	C	0.199400	0.634500	0.865500
C	C	0.800600	0.365500	0.865500
C	C	0.365500	0.865500	0.800600
C	C	0.634500	0.865500	0.199400
C	C	0.634500	0.134500	0.800600
C	C	0.365500	0.134500	0.199400
C	C	0.865500	0.199400	0.634500
C	C	0.865500	0.800600	0.365500
C	C	0.134500	0.199400	0.365500
C	C	0.134500	0.800600	0.634500
C	C	0.365500	0.699400	0.365500
C	C	0.634500	0.300600	0.365500
C	C	0.634500	0.699400	0.634500
C	C	0.365500	0.300600	0.634500
C	C	0.865500	0.865500	0.699400
C	C	0.865500	0.134500	0.300600
C	C	0.134500	0.134500	0.699400
C	C	0.134500	0.865500	0.300600
C	C	0.199400	0.365500	0.865500
C	C	0.800600	0.365500	0.134500
C	C	0.199400	0.634500	0.134500
C	C	0.800600	0.634500	0.865500
C	C	0.199400	0.865500	0.634500
C	C	0.800600	0.134500	0.634500
C	C	0.199400	0.134500	0.365500
C	C	0.800600	0.865500	0.365500
C	C	0.365500	0.365500	0.300600
C	C	0.634500	0.365500	0.699400
C	C	0.634500	0.634500	0.300600
C	C	0.365500	0.634500	0.699400
C	C	0.865500	0.699400	0.134500
C	C	0.865500	0.300600	0.865500
C	C	0.134500	0.699400	0.865500
C	C	0.134500	0.300600	0.134500
C	C	0.865500	0.199400	0.365500
C	C	0.134500	0.800600	0.365500
C	C	0.134500	0.199400	0.634500
C	C	0.865500	0.800600	0.634500
C	C	0.365500	0.365500	0.699400
C	C	0.365500	0.634500	0.300600
C	C	0.634500	0.634500	0.699400
C	C	0.634500	0.365500	0.300600
C	C	0.699400	0.865500	0.865500
C	C	0.300600	0.865500	0.134500
C	C	0.699400	0.134500	0.134500
C	C	0.300600	0.134500	0.865500
C	C	0.699400	0.365500	0.634500
C	C	0.300600	0.634500	0.634500
C	C	0.699400	0.634500	0.365500
C	C	0.300600	0.365500	0.365500
C	C	0.865500	0.865500	0.300600
C	C	0.134500	0.865500	0.699400
C	C	0.134500	0.134500	0.300600
C	C	0.865500	0.134500	0.699400
C	C	0.365500	0.199400	0.134500
C	C	0.365500	0.800600	0.865500
C	C	0.634500	0.199400	0.865500
C	C	0.634500	0.800600	0.134500
C	C	0.865500	0.699400	0.865500
C	C	0.134500	0.300600	0.865500
C	C	0.134500	0.699400	0.134500
C	C	0.865500	0.300600	0.134500
C	C	0.365500	0.865500	0.199400
C	C	0.365500	0.134500	0.800600
C	C	0.634500	0.134500	0.199400
C	C	0.634500	0.865500	0.800600
C	C	0.699400	0.365500	0.365500
C	C	0.300600	0.365500	0.634500
C	C	0.699400	0.634500	0.634500
C	C	0.300600	0.634500	0.365500
C	C	0.699400	0.865500	0.134500
C	C	0.300600	0.134500	0.134500
C	C	0.699400	0.134500	0.865500
C	C	0.300600	0.865500	0.865500
C	C	0.865500	0.365500	0.800600
C	C	0.134500	0.365500	0.199400
C	C	0.134500	0.634500	0.800600
C	C	0.865500	0.634500	0.199400
C	C	0.365500	0.699400	0.634500
C	C	0.365500	0.300600	0.365500
C	C	0.634500	0.699400	0.365500
C	C	0.634500	0.300600	0.634500
H	H	0.380200	0.228000	0.880200
H	H	0.619800	0.772000	0.880200
H	H	0.619800	0.228000	0.119800
H	H	0.380200	0.772000	0.119800
H	H	0.880200	0.380200	0.228000
H	H	0.880200	0.619800	0.772000
H	H	0.119800	0.619800	0.228000
H	H	0.119800	0.380200	0.772000
H	H	0.228000	0.880200	0.380200
H	H	0.772000	0.880200	0.619800
H	H	0.228000	0.119800	0.619800
H	H	0.772000	0.119800	0.380200
H	H	0.228000	0.380200	0.119800
H	H	0.772000	0.619800	0.119800
H	H	0.228000	0.619800	0.880200
H	H	0.772000	0.380200	0.880200
H	H	0.380200	0.880200	0.772000
H	H	0.619800	0.880200	0.228000
H	H	0.619800	0.119800	0.772000
H	H	0.380200	0.119800	0.228000
H	H	0.880200	0.228000	0.619800
H	H	0.880200	0.772000	0.380200
H	H	0.119800	0.228000	0.380200
H	H	0.119800	0.772000	0.619800
H	H	0.380200	0.728000	0.380200
H	H	0.619800	0.272000	0.380200
H	H	0.619800	0.728000	0.619800
H	H	0.380200	0.272000	0.619800
H	H	0.880200	0.880200	0.728000
H	H	0.880200	0.119800	0.272000
H	H	0.119800	0.119800	0.728000
H	H	0.119800	0.880200	0.272000
H	H	0.228000	0.380200	0.880200
H	H	0.772000	0.380200	0.119800
H	H	0.228000	0.619800	0.119800
H	H	0.772000	0.619800	0.880200
H	H	0.228000	0.880200	0.619800
H	H	0.772000	0.119800	0.619800
H	H	0.228000	0.119800	0.380200
H	H	0.772000	0.880200	0.380200
H	H	0.380200	0.380200	0.272000
H	H	0.619800	0.380200	0.728000
H	H	0.619800	0.619800	0.272000
H	H	0.380200	0.619800	0.728000
H	H	0.880200	0.728000	0.119800
H	H	0.880200	0.272000	0.880200
H	H	0.119800	0.728000	0.880200
H	H	0.119800	0.272000	0.119800
H	H	0.880200	0.228000	0.380200
H	H	0.119800	0.772000	0.380200
H	H	0.119800	0.228000	0.619800
H	H	0.880200	0.772000	0.619800
H	H	0.380200	0.380200	0.728000
H	H	0.380200	0.619800	0.272000
H	H	0.619800	0.619800	0.728000
H	H	0.619800	0.380200	0.272000
H	H	0.728000	0.880200	0.880200
H	H	0.272000	0.880200	0.119800
H	H	0.728000	0.119800	0.119800
H	H	0.272000	0.119800	0.880200
H	H	0.728000	0.380200	0.619800
H	H	0.272000	0.619800	0.619800
H	H	0.728000	0.619800	0.380200
H	H	0.272000	0.380200	0.380200
H	H	0.880200	0.880200	0.272000
H	H	0.119800	0.880200	0.728000
H	H	0.119800	0.119800	0.272000
H	H	0.880200	0.119800	0.728000
H	H	0.380200	0.228000	0.119800
H	H	0.380200	0.772000	0.880200
H	H	0.619800	0.228000	0.880200
H	H	0.619800	0.772000	0.119800
H	H	0.880200	0.728000	0.880200
H	H	0.119800	0.272000	0.880200
H	H	0.119800	0.728000	0.119800
H	H	0.880200	0.272000	0.119800
H	H	0.380200	0.880200	0.228000
H	H	0.380200	0.119800	0.772000
H	H	0.619800	0.119800	0.228000
H	H	0.619800	0.880200	0.772000
H	H	0.728000	0.380200	0.380200
H	H	0.272000	0.380200	0.619800
H	H	0.728000	0.619800	0.619800
H	H	0.272000	0.619800	0.380200
H	H	0.728000	0.880200	0.119800
H	H	0.272000	0.119800	0.119800
H	H	0.728000	0.119800	0.880200
H	H	0.272000	0.880200	0.880200
H	H	0.880200	0.380200	0.772000
H	H	0.119800	0.380200	0.228000
H	H	0.119800	0.619800	0.772000
H	H	0.880200	0.619800	0.228000
H	H	0.380200	0.728000	0.619800
H	H	0.380200	0.272000	0.380200
H	H	0.619800	0.728000	0.380200
H	H	0.619800	0.272000	0.619800
