data_MOF-505_PM
_symmetry_space_group_name_H-M	'P1'
_cell_length_a	18.482600
_cell_length_b	18.482600
_cell_length_c	24.713000
_cell_angle_alpha	90.000000
_cell_angle_beta	90.000000
_cell_angle_gamma	120.000000
_symmetry_Int_Tables_number 1

loop_
_symmetry_equiv_pos_as_xyz
'x,y,z'

loop_
_atom_site_label
_atom_site_type_symbol
_atom_site_fract_x
_atom_site_fract_y
_atom_site_fract_z
Cu	Cu	0.857322	0.142678	0.122930
Cu	Cu	0.857322	0.714644	0.122930
Cu	Cu	0.285356	0.142678	0.122930
Cu	Cu	0.142678	0.857322	0.877070
Cu	Cu	0.714644	0.857322	0.877070
Cu	Cu	0.142678	0.285356	0.877070
Cu	Cu	0.523989	0.476011	0.456263
Cu	Cu	0.523989	0.047977	0.456263
Cu	Cu	0.952023	0.476011	0.456263
Cu	Cu	0.809345	0.190655	0.210403
Cu	Cu	0.381311	0.190655	0.210403
Cu	Cu	0.809345	0.618689	0.210403
Cu	Cu	0.190655	0.809345	0.789597
Cu	Cu	0.190655	0.381311	0.789597
Cu	Cu	0.618689	0.809345	0.789597
Cu	Cu	0.476011	0.523989	0.543737
Cu	Cu	0.047977	0.523989	0.543737
Cu	Cu	0.476011	0.952023	0.543737
O	O	0.814590	0.038180	0.162390
O	O	0.961820	0.776410	0.162390
O	O	0.223590	0.185410	0.162390
O	O	0.038180	0.814590	0.837610
O	O	0.776410	0.961820	0.837610
O	O	0.185410	0.223590	0.837610
O	O	0.481257	0.371513	0.495723
O	O	0.628487	0.109743	0.495723
O	O	0.890257	0.518743	0.495723
O	O	0.704847	0.147923	0.170943
O	O	0.443077	0.295153	0.170943
O	O	0.852077	0.556923	0.170943
O	O	0.147923	0.704847	0.829057
O	O	0.295153	0.443077	0.829057
O	O	0.556923	0.852077	0.829057
O	O	0.371513	0.481257	0.504277
O	O	0.109743	0.628487	0.504277
O	O	0.518743	0.890257	0.504277
O	O	0.185410	0.961820	0.837610
O	O	0.038180	0.223590	0.837610
O	O	0.776410	0.814590	0.837610
O	O	0.961820	0.185410	0.162390
O	O	0.223590	0.038180	0.162390
O	O	0.814590	0.776410	0.162390
O	O	0.852077	0.295153	0.170943
O	O	0.704847	0.556923	0.170943
O	O	0.443077	0.147923	0.170943
O	O	0.628487	0.518743	0.495723
O	O	0.890257	0.371513	0.495723
O	O	0.481257	0.109743	0.495723
O	O	0.518743	0.628487	0.504277
O	O	0.371513	0.890257	0.504277
O	O	0.109743	0.481257	0.504277
O	O	0.295153	0.852077	0.829057
O	O	0.556923	0.704847	0.829057
O	O	0.147923	0.443077	0.829057
O	O	0.744520	0.106880	0.096980
O	O	0.893120	0.637640	0.096980
O	O	0.362360	0.255480	0.096980
O	O	0.106880	0.744520	0.903020
O	O	0.637640	0.893120	0.903020
O	O	0.255480	0.362360	0.903020
O	O	0.411187	0.440213	0.430313
O	O	0.559787	0.970973	0.430313
O	O	0.029027	0.588813	0.430313
O	O	0.773547	0.077853	0.236353
O	O	0.304307	0.226453	0.236353
O	O	0.922147	0.695693	0.236353
O	O	0.077853	0.773547	0.763647
O	O	0.226453	0.304307	0.763647
O	O	0.695693	0.922147	0.763647
O	O	0.440213	0.411187	0.569687
O	O	0.970973	0.559787	0.569687
O	O	0.588813	0.029027	0.569687
O	O	0.255480	0.893120	0.903020
O	O	0.106880	0.362360	0.903020
O	O	0.637640	0.744520	0.903020
O	O	0.893120	0.255480	0.096980
O	O	0.362360	0.106880	0.096980
O	O	0.744520	0.637640	0.096980
O	O	0.922147	0.226453	0.236353
O	O	0.773547	0.695693	0.236353
O	O	0.304307	0.077853	0.236353
O	O	0.559787	0.588813	0.430313
O	O	0.029027	0.440213	0.430313
O	O	0.411187	0.970973	0.430313
O	O	0.588813	0.559787	0.569687
O	O	0.440213	0.029027	0.569687
O	O	0.970973	0.411187	0.569687
O	O	0.226453	0.922147	0.763647
O	O	0.695693	0.773547	0.763647
O	O	0.077853	0.304307	0.763647
C	C	0.783740	0.026470	0.208920
C	C	0.973530	0.757270	0.208920
C	C	0.242730	0.216260	0.208920
C	C	0.026470	0.783740	0.791080
C	C	0.757270	0.973530	0.791080
C	C	0.216260	0.242730	0.791080
C	C	0.450407	0.359803	0.542253
C	C	0.640197	0.090603	0.542253
C	C	0.909397	0.549593	0.542253
C	C	0.693137	0.117073	0.124413
C	C	0.423937	0.306863	0.124413
C	C	0.882927	0.576063	0.124413
C	C	0.117073	0.693137	0.875587
C	C	0.306863	0.423937	0.875587
C	C	0.576063	0.882927	0.875587
C	C	0.359803	0.450407	0.457747
C	C	0.090603	0.640197	0.457747
C	C	0.549593	0.909397	0.457747
C	C	0.216260	0.973530	0.791080
C	C	0.026470	0.242730	0.791080
C	C	0.757270	0.783740	0.791080
C	C	0.973530	0.216260	0.208920
C	C	0.242730	0.026470	0.208920
C	C	0.783740	0.757270	0.208920
C	C	0.882927	0.306863	0.124413
C	C	0.693137	0.576063	0.124413
C	C	0.423937	0.117073	0.124413
C	C	0.640197	0.549593	0.542253
C	C	0.909397	0.359803	0.542253
C	C	0.450407	0.090603	0.542253
C	C	0.549593	0.640197	0.457747
C	C	0.359803	0.909397	0.457747
C	C	0.090603	0.450407	0.457747
C	C	0.306863	0.882927	0.875587
C	C	0.576063	0.693137	0.875587
C	C	0.117073	0.423937	0.875587
C	C	0.714860	0.921980	0.282920
C	C	0.078020	0.792880	0.282920
C	C	0.207120	0.285140	0.282920
C	C	0.921980	0.714860	0.717080
C	C	0.792880	0.078020	0.717080
C	C	0.285140	0.207120	0.717080
C	C	0.381527	0.255313	0.616253
C	C	0.744687	0.126213	0.616253
C	C	0.873787	0.618473	0.616253
C	C	0.588647	0.048193	0.050413
C	C	0.459547	0.411353	0.050413
C	C	0.951807	0.540453	0.050413
C	C	0.048193	0.588647	0.949587
C	C	0.411353	0.459547	0.949587
C	C	0.540453	0.951807	0.949587
C	C	0.255313	0.381527	0.383747
C	C	0.126213	0.744687	0.383747
C	C	0.618473	0.873787	0.383747
C	C	0.285140	0.078020	0.717080
C	C	0.921980	0.207120	0.717080
C	C	0.792880	0.714860	0.717080
C	C	0.078020	0.285140	0.282920
C	C	0.207120	0.921980	0.282920
C	C	0.714860	0.792880	0.282920
C	C	0.951807	0.411353	0.050413
C	C	0.588647	0.540453	0.050413
C	C	0.459547	0.048193	0.050413
C	C	0.744687	0.618473	0.616253
C	C	0.873787	0.255313	0.616253
C	C	0.381527	0.126213	0.616253
C	C	0.618473	0.744687	0.383747
C	C	0.255313	0.873787	0.383747
C	C	0.126213	0.381527	0.383747
C	C	0.411353	0.951807	0.949587
C	C	0.540453	0.588647	0.949587
C	C	0.048193	0.459547	0.949587
H	H	0.700500	0.959400	0.299600
H	H	0.040600	0.741100	0.299600
H	H	0.258900	0.299500	0.299600
H	H	0.959400	0.700500	0.700400
H	H	0.741100	0.040600	0.700400
H	H	0.299500	0.258900	0.700400
H	H	0.367167	0.292733	0.632933
H	H	0.707267	0.074433	0.632933
H	H	0.925567	0.632833	0.632933
H	H	0.626067	0.033833	0.033733
H	H	0.407767	0.373933	0.033733
H	H	0.966167	0.592233	0.033733
H	H	0.033833	0.626067	0.966267
H	H	0.373933	0.407767	0.966267
H	H	0.592233	0.966167	0.966267
H	H	0.292733	0.367167	0.367067
H	H	0.074433	0.707267	0.367067
H	H	0.632833	0.925567	0.367067
H	H	0.299500	0.040600	0.700400
H	H	0.959400	0.258900	0.700400
H	H	0.741100	0.700500	0.700400
H	H	0.040600	0.299500	0.299600
H	H	0.258900	0.959400	0.299600
H	H	0.700500	0.741100	0.299600
H	H	0.966167	0.373933	0.033733
H	H	0.626067	0.592233	0.033733
H	H	0.407767	0.033833	0.033733
H	H	0.707267	0.632833	0.632933
H	H	0.925567	0.292733	0.632933
H	H	0.367167	0.074433	0.632933
H	H	0.632833	0.707267	0.367067
H	H	0.292733	0.925567	0.367067
H	H	0.074433	0.367167	0.367067
H	H	0.373933	0.966167	0.966267
H	H	0.592233	0.626067	0.966267
H	H	0.033833	0.407767	0.966267
C	C	0.692000	0.845980	0.307440
C	C	0.154020	0.846020	0.307440
C	C	0.153980	0.308000	0.307440
C	C	0.845980	0.692000	0.692560
C	C	0.846020	0.154020	0.692560
C	C	0.308000	0.153980	0.692560
C	C	0.358667	0.179313	0.640773
C	C	0.820687	0.179353	0.640773
C	C	0.820647	0.641333	0.640773
C	C	0.512647	0.025333	0.025893
C	C	0.512687	0.487353	0.025893
C	C	0.974667	0.487313	0.025893
C	C	0.025333	0.512647	0.974107
C	C	0.487353	0.512687	0.974107
C	C	0.487313	0.974667	0.974107
C	C	0.179313	0.358667	0.359227
C	C	0.179353	0.820687	0.359227
C	C	0.641333	0.820647	0.359227
C	C	0.758300	0.944080	0.234530
C	C	0.055920	0.814220	0.234530
C	C	0.185780	0.241700	0.234530
C	C	0.944080	0.758300	0.765470
C	C	0.814220	0.055920	0.765470
C	C	0.241700	0.185780	0.765470
C	C	0.424967	0.277413	0.567863
C	C	0.722587	0.147553	0.567863
C	C	0.852447	0.575033	0.567863
C	C	0.610747	0.091633	0.098803
C	C	0.480887	0.389253	0.098803
C	C	0.908367	0.519113	0.098803
C	C	0.091633	0.610747	0.901197
C	C	0.389253	0.480887	0.901197
C	C	0.519113	0.908367	0.901197
C	C	0.277413	0.424967	0.432137
C	C	0.147553	0.722587	0.432137
C	C	0.575033	0.852447	0.432137
C	C	0.241700	0.055920	0.765470
C	C	0.944080	0.185780	0.765470
C	C	0.814220	0.758300	0.765470
C	C	0.055920	0.241700	0.234530
C	C	0.185780	0.944080	0.234530
C	C	0.758300	0.814220	0.234530
C	C	0.908367	0.389253	0.098803
C	C	0.610747	0.519113	0.098803
C	C	0.480887	0.091633	0.098803
C	C	0.722587	0.575033	0.567863
C	C	0.852447	0.277413	0.567863
C	C	0.424967	0.147553	0.567863
C	C	0.575033	0.722587	0.432137
C	C	0.277413	0.852447	0.432137
C	C	0.147553	0.424967	0.432137
C	C	0.389253	0.908367	0.901197
C	C	0.519113	0.610747	0.901197
C	C	0.091633	0.480887	0.901197
C	C	0.779300	0.889670	0.209820
C	C	0.110330	0.889630	0.209820
C	C	0.110370	0.220700	0.209820
C	C	0.889670	0.779300	0.790180
C	C	0.889630	0.110330	0.790180
C	C	0.220700	0.110370	0.790180
C	C	0.445967	0.223003	0.543153
C	C	0.776997	0.222963	0.543153
C	C	0.777037	0.554033	0.543153
C	C	0.556337	0.112633	0.123513
C	C	0.556297	0.443663	0.123513
C	C	0.887367	0.443703	0.123513
C	C	0.112633	0.556337	0.876487
C	C	0.443663	0.556297	0.876487
C	C	0.443703	0.887367	0.876487
C	C	0.223003	0.445967	0.456847
C	C	0.222963	0.776997	0.456847
C	C	0.554033	0.777037	0.456847
H	H	0.808000	0.904000	0.176200
H	H	0.096000	0.904000	0.176200
H	H	0.096000	0.192000	0.176200
H	H	0.904000	0.808000	0.823800
H	H	0.904000	0.096000	0.823800
H	H	0.192000	0.096000	0.823800
H	H	0.474667	0.237333	0.509533
H	H	0.762667	0.237333	0.509533
H	H	0.762667	0.525333	0.509533
H	H	0.570667	0.141333	0.157133
H	H	0.570667	0.429333	0.157133
H	H	0.858667	0.429333	0.157133
H	H	0.141333	0.570667	0.842867
H	H	0.429333	0.570667	0.842867
H	H	0.429333	0.858667	0.842867
H	H	0.237333	0.474667	0.490467
H	H	0.237333	0.762667	0.490467
H	H	0.525333	0.762667	0.490467
