data_PCN-14_PM
_symmetry_space_group_name_H-M	'P1'
_cell_length_a	18.453000
_cell_length_b	18.453000
_cell_length_c	76.976000
_cell_angle_alpha	90.000000
_cell_angle_beta	90.000000
_cell_angle_gamma	120.000000
_symmetry_Int_Tables_number 1

loop_
_symmetry_equiv_pos_as_xyz
'x,y,z'

loop_
_atom_site_label
_atom_site_type_symbol
_atom_site_fract_x
_atom_site_fract_y
_atom_site_fract_z
Cu	Cu	0.133540	0.848120	0.069247
Cu	Cu	0.151880	0.285420	0.069247
Cu	Cu	0.714580	0.866460	0.069247
Cu	Cu	0.848120	0.133540	0.430753
Cu	Cu	0.285420	0.151880	0.430753
Cu	Cu	0.866460	0.714580	0.430753
Cu	Cu	0.800207	0.181453	0.402580
Cu	Cu	0.818547	0.618753	0.402580
Cu	Cu	0.381247	0.199793	0.402580
Cu	Cu	0.514787	0.466873	0.764086
Cu	Cu	0.952087	0.485213	0.764086
Cu	Cu	0.533127	0.047913	0.764086
Cu	Cu	0.466873	0.514787	0.735914
Cu	Cu	0.485213	0.952087	0.735914
Cu	Cu	0.047913	0.533127	0.735914
Cu	Cu	0.181453	0.800207	0.097420
Cu	Cu	0.618753	0.818547	0.097420
Cu	Cu	0.199793	0.381247	0.097420
Cu	Cu	0.866460	0.151880	0.930753
Cu	Cu	0.848120	0.714580	0.930753
Cu	Cu	0.285420	0.133540	0.930753
Cu	Cu	0.151880	0.866460	0.569247
Cu	Cu	0.714580	0.848120	0.569247
Cu	Cu	0.133540	0.285420	0.569247
Cu	Cu	0.533127	0.485213	0.264086
Cu	Cu	0.514787	0.047913	0.264086
Cu	Cu	0.952087	0.466873	0.264086
Cu	Cu	0.818547	0.199793	0.902580
Cu	Cu	0.381247	0.181453	0.902580
Cu	Cu	0.800207	0.618753	0.902580
Cu	Cu	0.199793	0.818547	0.597420
Cu	Cu	0.181453	0.381247	0.597420
Cu	Cu	0.618753	0.800207	0.597420
Cu	Cu	0.485213	0.533127	0.235914
Cu	Cu	0.047913	0.514787	0.235914
Cu	Cu	0.466873	0.952087	0.235914
O	O	0.244830	0.882860	0.060530
O	O	0.117140	0.361970	0.060530
O	O	0.638030	0.755170	0.060530
O	O	0.882860	0.244830	0.439470
O	O	0.361970	0.117140	0.439470
O	O	0.755170	0.638030	0.439470
O	O	0.911497	0.216193	0.393863
O	O	0.783807	0.695303	0.393863
O	O	0.304697	0.088503	0.393863
O	O	0.549527	0.578163	0.772803
O	O	0.028637	0.450473	0.772803
O	O	0.421837	0.971363	0.772803
O	O	0.578163	0.549527	0.727197
O	O	0.450473	0.028637	0.727197
O	O	0.971363	0.421837	0.727197
O	O	0.216193	0.911497	0.106137
O	O	0.695303	0.783807	0.106137
O	O	0.088503	0.304697	0.106137
O	O	0.755170	0.117140	0.939470
O	O	0.882860	0.638030	0.939470
O	O	0.361970	0.244830	0.939470
O	O	0.117140	0.755170	0.560530
O	O	0.638030	0.882860	0.560530
O	O	0.244830	0.361970	0.560530
O	O	0.421837	0.450473	0.272803
O	O	0.549527	0.971363	0.272803
O	O	0.028637	0.578163	0.272803
O	O	0.783807	0.088503	0.893863
O	O	0.304697	0.216193	0.893863
O	O	0.911497	0.695303	0.893863
O	O	0.088503	0.783807	0.606137
O	O	0.216193	0.304697	0.606137
O	O	0.695303	0.911497	0.606137
O	O	0.450473	0.421837	0.227197
O	O	0.971363	0.549527	0.227197
O	O	0.578163	0.028637	0.227197
O	O	0.552600	0.857110	0.085270
O	O	0.142890	0.695490	0.085270
O	O	0.304510	0.447400	0.085270
O	O	0.857110	0.552600	0.414730
O	O	0.695490	0.142890	0.414730
O	O	0.447400	0.304510	0.414730
O	O	0.219267	0.190443	0.418603
O	O	0.809557	0.028823	0.418603
O	O	0.971177	0.780733	0.418603
O	O	0.523777	0.885933	0.748063
O	O	0.362157	0.476223	0.748063
O	O	0.114067	0.637843	0.748063
O	O	0.885933	0.523777	0.751937
O	O	0.476223	0.362157	0.751937
O	O	0.637843	0.114067	0.751937
O	O	0.190443	0.219267	0.081397
O	O	0.028823	0.809557	0.081397
O	O	0.780733	0.971177	0.081397
O	O	0.447400	0.142890	0.914730
O	O	0.857110	0.304510	0.914730
O	O	0.695490	0.552600	0.914730
O	O	0.142890	0.447400	0.585270
O	O	0.304510	0.857110	0.585270
O	O	0.552600	0.695490	0.585270
O	O	0.114067	0.476223	0.248063
O	O	0.523777	0.637843	0.248063
O	O	0.362157	0.885933	0.248063
O	O	0.809557	0.780733	0.918603
O	O	0.971177	0.190443	0.918603
O	O	0.219267	0.028823	0.918603
O	O	0.780733	0.809557	0.581397
O	O	0.190443	0.971177	0.581397
O	O	0.028823	0.219267	0.581397
O	O	0.476223	0.114067	0.251937
O	O	0.637843	0.523777	0.251937
O	O	0.885933	0.362157	0.251937
O	O	0.287490	0.846960	0.084700
O	O	0.153040	0.440530	0.084700
O	O	0.559470	0.712510	0.084700
O	O	0.846960	0.287490	0.415300
O	O	0.440530	0.153040	0.415300
O	O	0.712510	0.559470	0.415300
O	O	0.954157	0.180293	0.418033
O	O	0.819707	0.773863	0.418033
O	O	0.226137	0.045843	0.418033
O	O	0.513627	0.620823	0.748633
O	O	0.107197	0.486373	0.748633
O	O	0.379177	0.892803	0.748633
O	O	0.620823	0.513627	0.751367
O	O	0.486373	0.107197	0.751367
O	O	0.892803	0.379177	0.751367
O	O	0.180293	0.954157	0.081967
O	O	0.773863	0.819707	0.081967
O	O	0.045843	0.226137	0.081967
O	O	0.712510	0.153040	0.915300
O	O	0.846960	0.559470	0.915300
O	O	0.440530	0.287490	0.915300
O	O	0.153040	0.712510	0.584700
O	O	0.559470	0.846960	0.584700
O	O	0.287490	0.440530	0.584700
O	O	0.379177	0.486373	0.248633
O	O	0.513627	0.892803	0.248633
O	O	0.107197	0.620823	0.248633
O	O	0.819707	0.045843	0.918033
O	O	0.226137	0.180293	0.918033
O	O	0.954157	0.773863	0.918033
O	O	0.045843	0.819707	0.581967
O	O	0.180293	0.226137	0.581967
O	O	0.773863	0.954157	0.581967
O	O	0.486373	0.379177	0.251367
O	O	0.892803	0.513627	0.251367
O	O	0.620823	0.107197	0.251367
O	O	0.636510	0.903330	0.061940
O	O	0.096670	0.733180	0.061940
O	O	0.266820	0.363490	0.061940
O	O	0.903330	0.636510	0.438060
O	O	0.733180	0.096670	0.438060
O	O	0.363490	0.266820	0.438060
O	O	0.303177	0.236663	0.395273
O	O	0.763337	0.066513	0.395273
O	O	0.933487	0.696823	0.395273
O	O	0.569997	0.969843	0.771393
O	O	0.399847	0.430003	0.771393
O	O	0.030157	0.600153	0.771393
O	O	0.969843	0.569997	0.728607
O	O	0.430003	0.399847	0.728607
O	O	0.600153	0.030157	0.728607
O	O	0.236663	0.303177	0.104727
O	O	0.066513	0.763337	0.104727
O	O	0.696823	0.933487	0.104727
O	O	0.363490	0.096670	0.938060
O	O	0.903330	0.266820	0.938060
O	O	0.733180	0.636510	0.938060
O	O	0.096670	0.363490	0.561940
O	O	0.266820	0.903330	0.561940
O	O	0.636510	0.733180	0.561940
O	O	0.030157	0.430003	0.271393
O	O	0.569997	0.600153	0.271393
O	O	0.399847	0.969843	0.271393
O	O	0.763337	0.696823	0.895273
O	O	0.933487	0.236663	0.895273
O	O	0.303177	0.066513	0.895273
O	O	0.696823	0.763337	0.604727
O	O	0.236663	0.933487	0.604727
O	O	0.066513	0.303177	0.604727
O	O	0.430003	0.030157	0.228607
O	O	0.600153	0.569997	0.228607
O	O	0.969843	0.399847	0.228607
C	C	0.572040	0.888850	0.070440
C	C	0.111150	0.683190	0.070440
C	C	0.316810	0.427960	0.070440
C	C	0.888850	0.572040	0.429560
C	C	0.683190	0.111150	0.429560
C	C	0.427960	0.316810	0.429560
C	C	0.238707	0.222183	0.403773
C	C	0.777817	0.016523	0.403773
C	C	0.983477	0.761293	0.403773
C	C	0.555517	0.905373	0.762893
C	C	0.349857	0.444483	0.762893
C	C	0.094627	0.650143	0.762893
C	C	0.905373	0.555517	0.737107
C	C	0.444483	0.349857	0.737107
C	C	0.650143	0.094627	0.737107
C	C	0.222183	0.238707	0.096227
C	C	0.016523	0.777817	0.096227
C	C	0.761293	0.983477	0.096227
C	C	0.427960	0.111150	0.929560
C	C	0.888850	0.316810	0.929560
C	C	0.683190	0.572040	0.929560
C	C	0.111150	0.427960	0.570440
C	C	0.316810	0.888850	0.570440
C	C	0.572040	0.683190	0.570440
C	C	0.094627	0.444483	0.262893
C	C	0.555517	0.650143	0.262893
C	C	0.349857	0.905373	0.262893
C	C	0.777817	0.761293	0.903773
C	C	0.983477	0.222183	0.903773
C	C	0.238707	0.016523	0.903773
C	C	0.761293	0.777817	0.596227
C	C	0.222183	0.983477	0.596227
C	C	0.016523	0.238707	0.596227
C	C	0.444483	0.094627	0.237107
C	C	0.650143	0.555517	0.237107
C	C	0.905373	0.349857	0.237107
C	C	0.467590	0.948920	0.035950
C	C	0.051080	0.518670	0.035950
C	C	0.481330	0.532410	0.035950
C	C	0.948920	0.467590	0.464050
C	C	0.518670	0.051080	0.464050
C	C	0.532410	0.481330	0.464050
C	C	0.134257	0.282253	0.369283
C	C	0.717747	0.852003	0.369283
C	C	0.147997	0.865743	0.369283
C	C	0.615587	0.800923	0.797383
C	C	0.185337	0.384413	0.797383
C	C	0.199077	0.814663	0.797383
C	C	0.800923	0.615587	0.702617
C	C	0.384413	0.185337	0.702617
C	C	0.814663	0.199077	0.702617
C	C	0.282253	0.134257	0.130717
C	C	0.852003	0.717747	0.130717
C	C	0.865743	0.147997	0.130717
C	C	0.532410	0.051080	0.964050
C	C	0.948920	0.481330	0.964050
C	C	0.518670	0.467590	0.964050
C	C	0.051080	0.532410	0.535950
C	C	0.481330	0.948920	0.535950
C	C	0.467590	0.518670	0.535950
C	C	0.199077	0.384413	0.297383
C	C	0.615587	0.814663	0.297383
C	C	0.185337	0.800923	0.297383
C	C	0.717747	0.865743	0.869283
C	C	0.147997	0.282253	0.869283
C	C	0.134257	0.852003	0.869283
C	C	0.865743	0.717747	0.630717
C	C	0.282253	0.147997	0.630717
C	C	0.852003	0.134257	0.630717
C	C	0.384413	0.199077	0.202617
C	C	0.814663	0.615587	0.202617
C	C	0.800923	0.185337	0.202617
C	C	0.296860	0.875460	0.069600
C	C	0.124540	0.421400	0.069600
C	C	0.578600	0.703140	0.069600
C	C	0.875460	0.296860	0.430400
C	C	0.421400	0.124540	0.430400
C	C	0.703140	0.578600	0.430400
C	C	0.963527	0.208793	0.402933
C	C	0.791207	0.754733	0.402933
C	C	0.245267	0.036473	0.402933
C	C	0.542127	0.630193	0.763733
C	C	0.088067	0.457873	0.763733
C	C	0.369807	0.911933	0.763733
C	C	0.630193	0.542127	0.736267
C	C	0.457873	0.088067	0.736267
C	C	0.911933	0.369807	0.736267
C	C	0.208793	0.963527	0.097067
C	C	0.754733	0.791207	0.097067
C	C	0.036473	0.245267	0.097067
C	C	0.703140	0.124540	0.930400
C	C	0.875460	0.578600	0.930400
C	C	0.421400	0.296860	0.930400
C	C	0.124540	0.703140	0.569600
C	C	0.578600	0.875460	0.569600
C	C	0.296860	0.421400	0.569600
C	C	0.369807	0.457873	0.263733
C	C	0.542127	0.911933	0.263733
C	C	0.088067	0.630193	0.263733
C	C	0.791207	0.036473	0.902933
C	C	0.245267	0.208793	0.902933
C	C	0.963527	0.754733	0.902933
C	C	0.036473	0.791207	0.597067
C	C	0.208793	0.245267	0.597067
C	C	0.754733	0.963527	0.597067
C	C	0.457873	0.369807	0.236267
C	C	0.911933	0.542127	0.236267
C	C	0.630193	0.088067	0.236267
C	C	0.526540	0.937980	0.044870
C	C	0.062020	0.588560	0.044870
C	C	0.411440	0.473460	0.044870
C	C	0.937980	0.526540	0.455130
C	C	0.588560	0.062020	0.455130
C	C	0.473460	0.411440	0.455130
C	C	0.193207	0.271313	0.378203
C	C	0.728687	0.921893	0.378203
C	C	0.078107	0.806793	0.378203
C	C	0.604647	0.859873	0.788463
C	C	0.255227	0.395353	0.788463
C	C	0.140127	0.744773	0.788463
C	C	0.859873	0.604647	0.711537
C	C	0.395353	0.255227	0.711537
C	C	0.744773	0.140127	0.711537
C	C	0.271313	0.193207	0.121797
C	C	0.921893	0.728687	0.121797
C	C	0.806793	0.078107	0.121797
C	C	0.473460	0.062020	0.955130
C	C	0.937980	0.411440	0.955130
C	C	0.588560	0.526540	0.955130
C	C	0.062020	0.473460	0.544870
C	C	0.411440	0.937980	0.544870
C	C	0.526540	0.588560	0.544870
C	C	0.140127	0.395353	0.288463
C	C	0.604647	0.744773	0.288463
C	C	0.255227	0.859873	0.288463
C	C	0.728687	0.806793	0.878203
C	C	0.078107	0.271313	0.878203
C	C	0.193207	0.921893	0.878203
C	C	0.806793	0.728687	0.621797
C	C	0.271313	0.078107	0.621797
C	C	0.921893	0.193207	0.621797
C	C	0.395353	0.140127	0.211537
C	C	0.744773	0.604647	0.211537
C	C	0.859873	0.255227	0.211537
H	H	0.577400	0.950400	0.039300
H	H	0.049600	0.627000	0.039300
H	H	0.373000	0.422600	0.039300
H	H	0.950400	0.577400	0.460700
H	H	0.627000	0.049600	0.460700
H	H	0.422600	0.373000	0.460700
H	H	0.244067	0.283733	0.372633
H	H	0.716267	0.960333	0.372633
H	H	0.039667	0.755933	0.372633
H	H	0.617067	0.910733	0.794033
H	H	0.293667	0.382933	0.794033
H	H	0.089267	0.706333	0.794033
H	H	0.910733	0.617067	0.705967
H	H	0.382933	0.293667	0.705967
H	H	0.706333	0.089267	0.705967
H	H	0.283733	0.244067	0.127367
H	H	0.960333	0.716267	0.127367
H	H	0.755933	0.039667	0.127367
H	H	0.422600	0.049600	0.960700
H	H	0.950400	0.373000	0.960700
H	H	0.627000	0.577400	0.960700
H	H	0.049600	0.422600	0.539300
H	H	0.373000	0.950400	0.539300
H	H	0.577400	0.627000	0.539300
H	H	0.089267	0.382933	0.294033
H	H	0.617067	0.706333	0.294033
H	H	0.293667	0.910733	0.294033
H	H	0.716267	0.755933	0.872633
H	H	0.039667	0.283733	0.872633
H	H	0.244067	0.960333	0.872633
H	H	0.755933	0.716267	0.627367
H	H	0.283733	0.039667	0.627367
H	H	0.960333	0.244067	0.627367
H	H	0.382933	0.089267	0.205967
H	H	0.706333	0.617067	0.205967
H	H	0.910733	0.293667	0.205967
C	C	0.436600	0.917710	0.004270
C	C	0.082290	0.518890	0.004270
C	C	0.481110	0.563400	0.004270
C	C	0.917710	0.436600	0.495730
C	C	0.518890	0.082290	0.495730
C	C	0.563400	0.481110	0.495730
C	C	0.103267	0.251043	0.337603
C	C	0.748957	0.852223	0.337603
C	C	0.147777	0.896733	0.337603
C	C	0.584377	0.769933	0.829063
C	C	0.185557	0.415623	0.829063
C	C	0.230067	0.814443	0.829063
C	C	0.769933	0.584377	0.670937
C	C	0.415623	0.185557	0.670937
C	C	0.814443	0.230067	0.670937
C	C	0.251043	0.103267	0.162397
C	C	0.852223	0.748957	0.162397
C	C	0.896733	0.147777	0.162397
C	C	0.563400	0.082290	0.995730
C	C	0.917710	0.481110	0.995730
C	C	0.518890	0.436600	0.995730
C	C	0.082290	0.563400	0.504270
C	C	0.481110	0.917710	0.504270
C	C	0.436600	0.518890	0.504270
C	C	0.230067	0.415623	0.329063
C	C	0.584377	0.814443	0.329063
C	C	0.185557	0.769933	0.329063
C	C	0.748957	0.896733	0.837603
C	C	0.147777	0.251043	0.837603
C	C	0.103267	0.852223	0.837603
C	C	0.896733	0.748957	0.662397
C	C	0.251043	0.147777	0.662397
C	C	0.852223	0.103267	0.662397
C	C	0.415623	0.230067	0.170937
C	C	0.814443	0.584377	0.170937
C	C	0.769933	0.185557	0.170937
C	C	0.455070	0.943460	0.986690
C	C	0.056540	0.511610	0.986690
C	C	0.488390	0.544930	0.986690
C	C	0.943460	0.455070	0.513310
C	C	0.511610	0.056540	0.513310
C	C	0.544930	0.488390	0.513310
C	C	0.121737	0.276793	0.320023
C	C	0.723207	0.844943	0.320023
C	C	0.155057	0.878263	0.320023
C	C	0.610127	0.788403	0.846643
C	C	0.178277	0.389873	0.846643
C	C	0.211597	0.821723	0.846643
C	C	0.788403	0.610127	0.653357
C	C	0.389873	0.178277	0.653357
C	C	0.821723	0.211597	0.653357
C	C	0.276793	0.121737	0.179977
C	C	0.844943	0.723207	0.179977
C	C	0.878263	0.155057	0.179977
C	C	0.544930	0.056540	0.013310
C	C	0.943460	0.488390	0.013310
C	C	0.511610	0.455070	0.013310
C	C	0.056540	0.544930	0.486690
C	C	0.488390	0.943460	0.486690
C	C	0.455070	0.511610	0.486690
C	C	0.211597	0.389873	0.346643
C	C	0.610127	0.821723	0.346643
C	C	0.178277	0.788403	0.346643
C	C	0.723207	0.878263	0.820023
C	C	0.155057	0.276793	0.820023
C	C	0.121737	0.844943	0.820023
C	C	0.878263	0.723207	0.679977
C	C	0.276793	0.155057	0.679977
C	C	0.844943	0.121737	0.679977
C	C	0.389873	0.211597	0.153357
C	C	0.821723	0.610127	0.153357
C	C	0.788403	0.178277	0.153357
C	C	0.394220	0.930640	0.044210
C	C	0.069360	0.463580	0.044210
C	C	0.536420	0.605780	0.044210
C	C	0.930640	0.394220	0.455790
C	C	0.463580	0.069360	0.455790
C	C	0.605780	0.536420	0.455790
C	C	0.060887	0.263973	0.377543
C	C	0.736027	0.796913	0.377543
C	C	0.203087	0.939113	0.377543
C	C	0.597307	0.727553	0.789123
C	C	0.130247	0.402693	0.789123
C	C	0.272447	0.869753	0.789123
C	C	0.727553	0.597307	0.710877
C	C	0.402693	0.130247	0.710877
C	C	0.869753	0.272447	0.710877
C	C	0.263973	0.060887	0.122457
C	C	0.796913	0.736027	0.122457
C	C	0.939113	0.203087	0.122457
C	C	0.605780	0.069360	0.955790
C	C	0.930640	0.536420	0.955790
C	C	0.463580	0.394220	0.955790
C	C	0.069360	0.605780	0.544210
C	C	0.536420	0.930640	0.544210
C	C	0.394220	0.463580	0.544210
C	C	0.272447	0.402693	0.289123
C	C	0.597307	0.869753	0.289123
C	C	0.130247	0.727553	0.289123
C	C	0.736027	0.939113	0.877543
C	C	0.203087	0.263973	0.877543
C	C	0.060887	0.796913	0.877543
C	C	0.939113	0.736027	0.622457
C	C	0.263973	0.203087	0.622457
C	C	0.796913	0.060887	0.622457
C	C	0.402693	0.272447	0.210877
C	C	0.869753	0.597307	0.210877
C	C	0.727553	0.130247	0.210877
H	H	0.353300	0.937800	0.038200
H	H	0.062200	0.415500	0.038200
H	H	0.584500	0.646700	0.038200
H	H	0.937800	0.353300	0.461800
H	H	0.415500	0.062200	0.461800
H	H	0.646700	0.584500	0.461800
H	H	0.019967	0.271133	0.371533
H	H	0.728867	0.748833	0.371533
H	H	0.251167	0.980033	0.371533
H	H	0.604467	0.686633	0.795133
H	H	0.082167	0.395533	0.795133
H	H	0.313367	0.917833	0.795133
H	H	0.686633	0.604467	0.704867
H	H	0.395533	0.082167	0.704867
H	H	0.917833	0.313367	0.704867
H	H	0.271133	0.019967	0.128467
H	H	0.748833	0.728867	0.128467
H	H	0.980033	0.251167	0.128467
H	H	0.646700	0.062200	0.961800
H	H	0.937800	0.584500	0.961800
H	H	0.415500	0.353300	0.961800
H	H	0.062200	0.646700	0.538200
H	H	0.584500	0.937800	0.538200
H	H	0.353300	0.415500	0.538200
H	H	0.313367	0.395533	0.295133
H	H	0.604467	0.917833	0.295133
H	H	0.082167	0.686633	0.295133
H	H	0.728867	0.980033	0.871533
H	H	0.251167	0.271133	0.871533
H	H	0.019967	0.748833	0.871533
H	H	0.980033	0.728867	0.628467
H	H	0.271133	0.251167	0.628467
H	H	0.748833	0.019967	0.628467
H	H	0.395533	0.313367	0.204867
H	H	0.917833	0.604467	0.204867
H	H	0.686633	0.082167	0.204867
C	C	0.379310	0.901720	0.061280
C	C	0.098280	0.477590	0.061280
C	C	0.522410	0.620690	0.061280
C	C	0.901720	0.379310	0.438720
C	C	0.477590	0.098280	0.438720
C	C	0.620690	0.522410	0.438720
C	C	0.045977	0.235053	0.394613
C	C	0.764947	0.810923	0.394613
C	C	0.189077	0.954023	0.394613
C	C	0.568387	0.712643	0.772053
C	C	0.144257	0.431613	0.772053
C	C	0.287357	0.855743	0.772053
C	C	0.712643	0.568387	0.727947
C	C	0.431613	0.144257	0.727947
C	C	0.855743	0.287357	0.727947
C	C	0.235053	0.045977	0.105387
C	C	0.810923	0.764947	0.105387
C	C	0.954023	0.189077	0.105387
C	C	0.620690	0.098280	0.938720
C	C	0.901720	0.522410	0.938720
C	C	0.477590	0.379310	0.938720
C	C	0.098280	0.620690	0.561280
C	C	0.522410	0.901720	0.561280
C	C	0.379310	0.477590	0.561280
C	C	0.287357	0.431613	0.272053
C	C	0.568387	0.855743	0.272053
C	C	0.144257	0.712643	0.272053
C	C	0.764947	0.954023	0.894613
C	C	0.189077	0.235053	0.894613
C	C	0.045977	0.810923	0.894613
C	C	0.954023	0.764947	0.605387
C	C	0.235053	0.189077	0.605387
C	C	0.810923	0.045977	0.605387
C	C	0.431613	0.287357	0.227947
C	C	0.855743	0.568387	0.227947
C	C	0.712643	0.144257	0.227947
C	C	0.482970	0.976190	0.017430
C	C	0.023810	0.506780	0.017430
C	C	0.493220	0.517030	0.017430
C	C	0.976190	0.482970	0.482570
C	C	0.506780	0.023810	0.482570
C	C	0.517030	0.493220	0.482570
C	C	0.149637	0.309523	0.350763
C	C	0.690477	0.840113	0.350763
C	C	0.159887	0.850363	0.350763
C	C	0.642857	0.816303	0.815903
C	C	0.173447	0.357143	0.815903
C	C	0.183697	0.826553	0.815903
C	C	0.816303	0.642857	0.684097
C	C	0.357143	0.173447	0.684097
C	C	0.826553	0.183697	0.684097
C	C	0.309523	0.149637	0.149237
C	C	0.840113	0.690477	0.149237
C	C	0.850363	0.159887	0.149237
C	C	0.517030	0.023810	0.982570
C	C	0.976190	0.493220	0.982570
C	C	0.506780	0.482970	0.982570
C	C	0.023810	0.517030	0.517430
C	C	0.493220	0.976190	0.517430
C	C	0.482970	0.506780	0.517430
C	C	0.183697	0.357143	0.315903
C	C	0.642857	0.826553	0.315903
C	C	0.173447	0.816303	0.315903
C	C	0.690477	0.850363	0.850763
C	C	0.159887	0.309523	0.850763
C	C	0.149637	0.840113	0.850763
C	C	0.850363	0.690477	0.649237
C	C	0.309523	0.159887	0.649237
C	C	0.840113	0.149637	0.649237
C	C	0.357143	0.183697	0.184097
C	C	0.826553	0.642857	0.184097
C	C	0.816303	0.173447	0.184097
O	O	0.094160	0.884300	0.046590
O	O	0.115700	0.209860	0.046590
O	O	0.790140	0.905840	0.046590
O	O	0.884300	0.094160	0.453410
O	O	0.209860	0.115700	0.453410
O	O	0.905840	0.790140	0.453410
O	O	0.760827	0.217633	0.379923
O	O	0.782367	0.543193	0.379923
O	O	0.456807	0.239173	0.379923
O	O	0.550967	0.427493	0.786743
O	O	0.876527	0.449033	0.786743
O	O	0.572507	0.123473	0.786743
O	O	0.427493	0.550967	0.713257
O	O	0.449033	0.876527	0.713257
O	O	0.123473	0.572507	0.713257
O	O	0.217633	0.760827	0.120077
O	O	0.543193	0.782367	0.120077
O	O	0.239173	0.456807	0.120077
O	O	0.905840	0.115700	0.953410
O	O	0.884300	0.790140	0.953410
O	O	0.209860	0.094160	0.953410
O	O	0.115700	0.905840	0.546590
O	O	0.790140	0.884300	0.546590
O	O	0.094160	0.209860	0.546590
O	O	0.572507	0.449033	0.286743
O	O	0.550967	0.123473	0.286743
O	O	0.876527	0.427493	0.286743
O	O	0.782367	0.239173	0.879923
O	O	0.456807	0.217633	0.879923
O	O	0.760827	0.543193	0.879923
O	O	0.239173	0.782367	0.620077
O	O	0.217633	0.456807	0.620077
O	O	0.543193	0.760827	0.620077
O	O	0.449033	0.572507	0.213257
O	O	0.123473	0.550967	0.213257
O	O	0.427493	0.876527	0.213257
C	C	0.439380	0.891320	0.070000
C	C	0.108680	0.548060	0.070000
C	C	0.451940	0.560620	0.070000
C	C	0.891320	0.439380	0.430000
C	C	0.548060	0.108680	0.430000
C	C	0.560620	0.451940	0.430000
C	C	0.106047	0.224653	0.403333
C	C	0.775347	0.881393	0.403333
C	C	0.118607	0.893953	0.403333
C	C	0.557987	0.772713	0.763333
C	C	0.214727	0.442013	0.763333
C	C	0.227287	0.785273	0.763333
C	C	0.772713	0.557987	0.736667
C	C	0.442013	0.214727	0.736667
C	C	0.785273	0.227287	0.736667
C	C	0.224653	0.106047	0.096667
C	C	0.881393	0.775347	0.096667
C	C	0.893953	0.118607	0.096667
C	C	0.560620	0.108680	0.930000
C	C	0.891320	0.451940	0.930000
C	C	0.548060	0.439380	0.930000
C	C	0.108680	0.560620	0.570000
C	C	0.451940	0.891320	0.570000
C	C	0.439380	0.548060	0.570000
C	C	0.227287	0.442013	0.263333
C	C	0.557987	0.785273	0.263333
C	C	0.214727	0.772713	0.263333
C	C	0.775347	0.893953	0.903333
C	C	0.118607	0.224653	0.903333
C	C	0.106047	0.881393	0.903333
C	C	0.893953	0.775347	0.596667
C	C	0.224653	0.118607	0.596667
C	C	0.881393	0.106047	0.596667
C	C	0.442013	0.227287	0.236667
C	C	0.785273	0.557987	0.236667
C	C	0.772713	0.214727	0.236667
H	H	0.429900	0.871800	0.081700
H	H	0.128200	0.558100	0.081700
H	H	0.441900	0.570100	0.081700
H	H	0.871800	0.429900	0.418300
H	H	0.558100	0.128200	0.418300
H	H	0.570100	0.441900	0.418300
H	H	0.096567	0.205133	0.415033
H	H	0.794867	0.891433	0.415033
H	H	0.108567	0.903433	0.415033
H	H	0.538467	0.763233	0.751633
H	H	0.224767	0.461533	0.751633
H	H	0.236767	0.775233	0.751633
H	H	0.763233	0.538467	0.748367
H	H	0.461533	0.224767	0.748367
H	H	0.775233	0.236767	0.748367
H	H	0.205133	0.096567	0.084967
H	H	0.891433	0.794867	0.084967
H	H	0.903433	0.108567	0.084967
H	H	0.570100	0.128200	0.918300
H	H	0.871800	0.441900	0.918300
H	H	0.558100	0.429900	0.918300
H	H	0.128200	0.570100	0.581700
H	H	0.441900	0.871800	0.581700
H	H	0.429900	0.558100	0.581700
H	H	0.236767	0.461533	0.251633
H	H	0.538467	0.775233	0.251633
H	H	0.224767	0.763233	0.251633
H	H	0.794867	0.903433	0.915033
H	H	0.108567	0.205133	0.915033
H	H	0.096567	0.891433	0.915033
H	H	0.903433	0.794867	0.584967
H	H	0.205133	0.108567	0.584967
H	H	0.891433	0.096567	0.584967
H	H	0.461533	0.236767	0.248367
H	H	0.775233	0.538467	0.248367
H	H	0.763233	0.224767	0.248367
C	C	0.408200	0.881900	0.973650
C	C	0.118100	0.526300	0.973650
C	C	0.473700	0.591800	0.973650
C	C	0.881900	0.408200	0.526350
C	C	0.526300	0.118100	0.526350
C	C	0.591800	0.473700	0.526350
C	C	0.074867	0.215233	0.306983
C	C	0.784767	0.859633	0.306983
C	C	0.140367	0.925133	0.306983
C	C	0.548567	0.741533	0.859683
C	C	0.192967	0.451433	0.859683
C	C	0.258467	0.807033	0.859683
C	C	0.741533	0.548567	0.640317
C	C	0.451433	0.192967	0.640317
C	C	0.807033	0.258467	0.640317
C	C	0.215233	0.074867	0.193017
C	C	0.859633	0.784767	0.193017
C	C	0.925133	0.140367	0.193017
C	C	0.591800	0.118100	0.026350
C	C	0.881900	0.473700	0.026350
C	C	0.526300	0.408200	0.026350
C	C	0.118100	0.591800	0.473650
C	C	0.473700	0.881900	0.473650
C	C	0.408200	0.526300	0.473650
C	C	0.258467	0.451433	0.359683
C	C	0.548567	0.807033	0.359683
C	C	0.192967	0.741533	0.359683
C	C	0.784767	0.925133	0.806983
C	C	0.140367	0.215233	0.806983
C	C	0.074867	0.859633	0.806983
C	C	0.925133	0.784767	0.693017
C	C	0.215233	0.140367	0.693017
C	C	0.859633	0.074867	0.693017
C	C	0.451433	0.258467	0.140317
C	C	0.807033	0.548567	0.140317
C	C	0.741533	0.192967	0.140317
H	H	0.419600	0.896800	0.961700
H	H	0.103200	0.522800	0.961700
H	H	0.477200	0.580400	0.961700
H	H	0.896800	0.419600	0.538300
H	H	0.522800	0.103200	0.538300
H	H	0.580400	0.477200	0.538300
H	H	0.086267	0.230133	0.295033
H	H	0.769867	0.856133	0.295033
H	H	0.143867	0.913733	0.295033
H	H	0.563467	0.752933	0.871633
H	H	0.189467	0.436533	0.871633
H	H	0.247067	0.810533	0.871633
H	H	0.752933	0.563467	0.628367
H	H	0.436533	0.189467	0.628367
H	H	0.810533	0.247067	0.628367
H	H	0.230133	0.086267	0.204967
H	H	0.856133	0.769867	0.204967
H	H	0.913733	0.143867	0.204967
H	H	0.580400	0.103200	0.038300
H	H	0.896800	0.477200	0.038300
H	H	0.522800	0.419600	0.038300
H	H	0.103200	0.580400	0.461700
H	H	0.477200	0.896800	0.461700
H	H	0.419600	0.522800	0.461700
H	H	0.247067	0.436533	0.371633
H	H	0.563467	0.810533	0.371633
H	H	0.189467	0.752933	0.371633
H	H	0.769867	0.913733	0.795033
H	H	0.143867	0.230133	0.795033
H	H	0.086267	0.856133	0.795033
H	H	0.913733	0.769867	0.704967
H	H	0.230133	0.143867	0.704967
H	H	0.856133	0.086267	0.704967
H	H	0.436533	0.247067	0.128367
H	H	0.810533	0.563467	0.128367
H	H	0.752933	0.189467	0.128367
C	C	0.512700	0.909340	0.061720
C	C	0.090660	0.603360	0.061720
C	C	0.396640	0.487300	0.061720
C	C	0.909340	0.512700	0.438280
C	C	0.603360	0.090660	0.438280
C	C	0.487300	0.396640	0.438280
C	C	0.179367	0.242673	0.395053
C	C	0.757327	0.936693	0.395053
C	C	0.063307	0.820633	0.395053
C	C	0.576007	0.846033	0.771613
C	C	0.270027	0.423993	0.771613
C	C	0.153967	0.729973	0.771613
C	C	0.846033	0.576007	0.728387
C	C	0.423993	0.270027	0.728387
C	C	0.729973	0.153967	0.728387
C	C	0.242673	0.179367	0.104947
C	C	0.936693	0.757327	0.104947
C	C	0.820633	0.063307	0.104947
C	C	0.487300	0.090660	0.938280
C	C	0.909340	0.396640	0.938280
C	C	0.603360	0.512700	0.938280
C	C	0.090660	0.487300	0.561720
C	C	0.396640	0.909340	0.561720
C	C	0.512700	0.603360	0.561720
C	C	0.153967	0.423993	0.271613
C	C	0.576007	0.729973	0.271613
C	C	0.270027	0.846033	0.271613
C	C	0.757327	0.820633	0.895053
C	C	0.063307	0.242673	0.895053
C	C	0.179367	0.936693	0.895053
C	C	0.820633	0.757327	0.604947
C	C	0.242673	0.063307	0.604947
C	C	0.936693	0.179367	0.604947
C	C	0.423993	0.153967	0.228387
C	C	0.729973	0.576007	0.228387
C	C	0.846033	0.270027	0.228387
C	C	0.373540	0.834880	0.008030
C	C	0.165120	0.538660	0.008030
C	C	0.461340	0.626460	0.008030
C	C	0.834880	0.373540	0.491970
C	C	0.538660	0.165120	0.491970
C	C	0.626460	0.461340	0.491970
C	C	0.040207	0.168213	0.341363
C	C	0.831787	0.871993	0.341363
C	C	0.128007	0.959793	0.341363
C	C	0.501547	0.706873	0.825303
C	C	0.205327	0.498453	0.825303
C	C	0.293127	0.794673	0.825303
C	C	0.706873	0.501547	0.674697
C	C	0.498453	0.205327	0.674697
C	C	0.794673	0.293127	0.674697
C	C	0.168213	0.040207	0.158637
C	C	0.871993	0.831787	0.158637
C	C	0.959793	0.128007	0.158637
C	C	0.626460	0.165120	0.991970
C	C	0.834880	0.461340	0.991970
C	C	0.538660	0.373540	0.991970
C	C	0.165120	0.626460	0.508030
C	C	0.461340	0.834880	0.508030
C	C	0.373540	0.538660	0.508030
C	C	0.293127	0.498453	0.325303
C	C	0.501547	0.794673	0.325303
C	C	0.205327	0.706873	0.325303
C	C	0.831787	0.959793	0.841363
C	C	0.128007	0.168213	0.841363
C	C	0.040207	0.871993	0.841363
C	C	0.959793	0.831787	0.658637
C	C	0.168213	0.128007	0.658637
C	C	0.871993	0.040207	0.658637
C	C	0.498453	0.293127	0.174697
C	C	0.794673	0.501547	0.174697
C	C	0.706873	0.205327	0.174697
H	H	0.361300	0.817500	0.019800
H	H	0.182500	0.543800	0.019800
H	H	0.456200	0.638700	0.019800
H	H	0.817500	0.361300	0.480200
H	H	0.543800	0.182500	0.480200
H	H	0.638700	0.456200	0.480200
H	H	0.027967	0.150833	0.353133
H	H	0.849167	0.877133	0.353133
H	H	0.122867	0.972033	0.353133
H	H	0.484167	0.694633	0.813533
H	H	0.210467	0.515833	0.813533
H	H	0.305367	0.789533	0.813533
H	H	0.694633	0.484167	0.686467
H	H	0.515833	0.210467	0.686467
H	H	0.789533	0.305367	0.686467
H	H	0.150833	0.027967	0.146867
H	H	0.877133	0.849167	0.146867
H	H	0.972033	0.122867	0.146867
H	H	0.638700	0.182500	0.980200
H	H	0.817500	0.456200	0.980200
H	H	0.543800	0.361300	0.980200
H	H	0.182500	0.638700	0.519800
H	H	0.456200	0.817500	0.519800
H	H	0.361300	0.543800	0.519800
H	H	0.305367	0.515833	0.313533
H	H	0.484167	0.789533	0.313533
H	H	0.210467	0.694633	0.313533
H	H	0.849167	0.972033	0.853133
H	H	0.122867	0.150833	0.853133
H	H	0.027967	0.877133	0.853133
H	H	0.972033	0.849167	0.646867
H	H	0.150833	0.122867	0.646867
H	H	0.877133	0.027967	0.646867
H	H	0.515833	0.305367	0.186467
H	H	0.789533	0.484167	0.186467
H	H	0.694633	0.210467	0.186467
C	C	0.348800	0.803900	0.977850
C	C	0.196100	0.544900	0.977850
C	C	0.455100	0.651200	0.977850
C	C	0.803900	0.348800	0.522150
C	C	0.544900	0.196100	0.522150
C	C	0.651200	0.455100	0.522150
C	C	0.015467	0.137233	0.311183
C	C	0.862767	0.878233	0.311183
C	C	0.121767	0.984533	0.311183
C	C	0.470567	0.682133	0.855483
C	C	0.211567	0.529433	0.855483
C	C	0.317867	0.788433	0.855483
C	C	0.682133	0.470567	0.644517
C	C	0.529433	0.211567	0.644517
C	C	0.788433	0.317867	0.644517
C	C	0.137233	0.015467	0.188817
C	C	0.878233	0.862767	0.188817
C	C	0.984533	0.121767	0.188817
C	C	0.651200	0.196100	0.022150
C	C	0.803900	0.455100	0.022150
C	C	0.544900	0.348800	0.022150
C	C	0.196100	0.651200	0.477850
C	C	0.455100	0.803900	0.477850
C	C	0.348800	0.544900	0.477850
C	C	0.317867	0.529433	0.355483
C	C	0.470567	0.788433	0.355483
C	C	0.211567	0.682133	0.355483
C	C	0.862767	0.984533	0.811183
C	C	0.121767	0.137233	0.811183
C	C	0.015467	0.878233	0.811183
C	C	0.984533	0.862767	0.688817
C	C	0.137233	0.121767	0.688817
C	C	0.878233	0.015467	0.688817
C	C	0.529433	0.317867	0.144517
C	C	0.788433	0.470567	0.144517
C	C	0.682133	0.211567	0.144517
H	H	0.318900	0.764600	0.968900
H	H	0.235400	0.554300	0.968900
H	H	0.445700	0.681100	0.968900
H	H	0.764600	0.318900	0.531100
H	H	0.554300	0.235400	0.531100
H	H	0.681100	0.445700	0.531100
H	H	0.985567	0.097933	0.302233
H	H	0.902067	0.887633	0.302233
H	H	0.112367	0.014433	0.302233
H	H	0.431267	0.652233	0.864433
H	H	0.220967	0.568733	0.864433
H	H	0.347767	0.779033	0.864433
H	H	0.652233	0.431267	0.635567
H	H	0.568733	0.220967	0.635567
H	H	0.779033	0.347767	0.635567
H	H	0.097933	0.985567	0.197767
H	H	0.887633	0.902067	0.197767
H	H	0.014433	0.112367	0.197767
H	H	0.681100	0.235400	0.031100
H	H	0.764600	0.445700	0.031100
H	H	0.554300	0.318900	0.031100
H	H	0.235400	0.681100	0.468900
H	H	0.445700	0.764600	0.468900
H	H	0.318900	0.554300	0.468900
H	H	0.347767	0.568733	0.364433
H	H	0.431267	0.779033	0.364433
H	H	0.220967	0.652233	0.364433
H	H	0.902067	0.014433	0.802233
H	H	0.112367	0.097933	0.802233
H	H	0.985567	0.887633	0.802233
H	H	0.014433	0.902067	0.697767
H	H	0.097933	0.112367	0.697767
H	H	0.887633	0.985567	0.697767
H	H	0.568733	0.347767	0.135567
H	H	0.779033	0.431267	0.135567
H	H	0.652233	0.220967	0.135567
C	C	0.330600	0.780200	0.995370
C	C	0.219800	0.550400	0.995370
C	C	0.449600	0.669400	0.995370
C	C	0.780200	0.330600	0.504630
C	C	0.550400	0.219800	0.504630
C	C	0.669400	0.449600	0.504630
C	C	0.997267	0.113533	0.328703
C	C	0.886467	0.883733	0.328703
C	C	0.116267	0.002733	0.328703
C	C	0.446867	0.663933	0.837963
C	C	0.217067	0.553133	0.837963
C	C	0.336067	0.782933	0.837963
C	C	0.663933	0.446867	0.662037
C	C	0.553133	0.217067	0.662037
C	C	0.782933	0.336067	0.662037
C	C	0.113533	0.997267	0.171297
C	C	0.883733	0.886467	0.171297
C	C	0.002733	0.116267	0.171297
C	C	0.669400	0.219800	0.004630
C	C	0.780200	0.449600	0.004630
C	C	0.550400	0.330600	0.004630
C	C	0.219800	0.669400	0.495370
C	C	0.449600	0.780200	0.495370
C	C	0.330600	0.550400	0.495370
C	C	0.336067	0.553133	0.337963
C	C	0.446867	0.782933	0.337963
C	C	0.217067	0.663933	0.337963
C	C	0.886467	0.002733	0.828703
C	C	0.116267	0.113533	0.828703
C	C	0.997267	0.883733	0.828703
C	C	0.002733	0.886467	0.671297
C	C	0.113533	0.116267	0.671297
C	C	0.883733	0.997267	0.671297
C	C	0.553133	0.336067	0.162037
C	C	0.782933	0.446867	0.162037
C	C	0.663933	0.217067	0.162037
H	H	0.287600	0.725200	0.998200
H	H	0.274800	0.562400	0.998200
H	H	0.437600	0.712400	0.998200
H	H	0.725200	0.287600	0.501800
H	H	0.562400	0.274800	0.501800
H	H	0.712400	0.437600	0.501800
H	H	0.954267	0.058533	0.331533
H	H	0.941467	0.895733	0.331533
H	H	0.104267	0.045733	0.331533
H	H	0.391867	0.620933	0.835133
H	H	0.229067	0.608133	0.835133
H	H	0.379067	0.770933	0.835133
H	H	0.620933	0.391867	0.664867
H	H	0.608133	0.229067	0.664867
H	H	0.770933	0.379067	0.664867
H	H	0.058533	0.954267	0.168467
H	H	0.895733	0.941467	0.168467
H	H	0.045733	0.104267	0.168467
H	H	0.712400	0.274800	0.001800
H	H	0.725200	0.437600	0.001800
H	H	0.562400	0.287600	0.001800
H	H	0.274800	0.712400	0.498200
H	H	0.437600	0.725200	0.498200
H	H	0.287600	0.562400	0.498200
H	H	0.379067	0.608133	0.335133
H	H	0.391867	0.770933	0.335133
H	H	0.229067	0.620933	0.335133
H	H	0.941467	0.045733	0.831533
H	H	0.104267	0.058533	0.831533
H	H	0.954267	0.895733	0.831533
H	H	0.045733	0.941467	0.668467
H	H	0.058533	0.104267	0.668467
H	H	0.895733	0.954267	0.668467
H	H	0.608133	0.379067	0.164867
H	H	0.770933	0.391867	0.164867
H	H	0.620933	0.229067	0.164867
