data_PCN-14_PM
_symmetry_space_group_name_H-M	'P1'
_cell_length_a	18.453000
_cell_length_b	18.453000
_cell_length_c	76.976000
_cell_angle_alpha	90.000000
_cell_angle_beta	90.000000
_cell_angle_gamma	120.000000
_symmetry_Int_Tables_number 1

loop_
_symmetry_equiv_pos_as_xyz
'x,y,z'

loop_
_atom_site_label
_atom_site_type_symbol
_atom_site_fract_x
_atom_site_fract_y
_atom_site_fract_z
_atom_site_charge
Cu1	Cu	0.133540	0.848120	0.069247	0.000000
Cu2	Cu	0.151880	0.285420	0.069247	0.000000
Cu3	Cu	0.714580	0.866460	0.069247	0.000000
Cu4	Cu	0.848120	0.133540	0.430753	0.000000
Cu5	Cu	0.285420	0.151880	0.430753	0.000000
Cu6	Cu	0.866460	0.714580	0.430753	0.000000
Cu7	Cu	0.800207	0.181453	0.402580	0.000000
Cu8	Cu	0.818547	0.618753	0.402580	0.000000
Cu9	Cu	0.381247	0.199793	0.402580	0.000000
Cu10	Cu	0.514787	0.466873	0.764086	0.000000
Cu11	Cu	0.952087	0.485213	0.764086	0.000000
Cu12	Cu	0.533127	0.047913	0.764086	0.000000
Cu13	Cu	0.466873	0.514787	0.735914	0.000000
Cu14	Cu	0.485213	0.952087	0.735914	0.000000
Cu15	Cu	0.047913	0.533127	0.735914	0.000000
Cu16	Cu	0.181453	0.800207	0.097420	0.000000
Cu17	Cu	0.618753	0.818547	0.097420	0.000000
Cu18	Cu	0.199793	0.381247	0.097420	0.000000
Cu19	Cu	0.866460	0.151880	0.930753	0.000000
Cu20	Cu	0.848120	0.714580	0.930753	0.000000
Cu21	Cu	0.285420	0.133540	0.930753	0.000000
Cu22	Cu	0.151880	0.866460	0.569247	0.000000
Cu23	Cu	0.714580	0.848120	0.569247	0.000000
Cu24	Cu	0.133540	0.285420	0.569247	0.000000
Cu25	Cu	0.533127	0.485213	0.264086	0.000000
Cu26	Cu	0.514787	0.047913	0.264086	0.000000
Cu27	Cu	0.952087	0.466873	0.264086	0.000000
Cu28	Cu	0.818547	0.199793	0.902580	0.000000
Cu29	Cu	0.381247	0.181453	0.902580	0.000000
Cu30	Cu	0.800207	0.618753	0.902580	0.000000
Cu31	Cu	0.199793	0.818547	0.597420	0.000000
Cu32	Cu	0.181453	0.381247	0.597420	0.000000
Cu33	Cu	0.618753	0.800207	0.597420	0.000000
Cu34	Cu	0.485213	0.533127	0.235914	0.000000
Cu35	Cu	0.047913	0.514787	0.235914	0.000000
Cu36	Cu	0.466873	0.952087	0.235914	0.000000
O1	O	0.244830	0.882860	0.060530	0.000000
O2	O	0.117140	0.361970	0.060530	0.000000
O3	O	0.638030	0.755170	0.060530	0.000000
O4	O	0.882860	0.244830	0.439470	0.000000
O5	O	0.361970	0.117140	0.439470	0.000000
O6	O	0.755170	0.638030	0.439470	0.000000
O7	O	0.911497	0.216193	0.393863	0.000000
O8	O	0.783807	0.695303	0.393863	0.000000
O9	O	0.304697	0.088503	0.393863	0.000000
O10	O	0.549527	0.578163	0.772803	0.000000
O11	O	0.028637	0.450473	0.772803	0.000000
O12	O	0.421837	0.971363	0.772803	0.000000
O13	O	0.578163	0.549527	0.727197	0.000000
O14	O	0.450473	0.028637	0.727197	0.000000
O15	O	0.971363	0.421837	0.727197	0.000000
O16	O	0.216193	0.911497	0.106137	0.000000
O17	O	0.695303	0.783807	0.106137	0.000000
O18	O	0.088503	0.304697	0.106137	0.000000
O19	O	0.755170	0.117140	0.939470	0.000000
O20	O	0.882860	0.638030	0.939470	0.000000
O21	O	0.361970	0.244830	0.939470	0.000000
O22	O	0.117140	0.755170	0.560530	0.000000
O23	O	0.638030	0.882860	0.560530	0.000000
O24	O	0.244830	0.361970	0.560530	0.000000
O25	O	0.421837	0.450473	0.272803	0.000000
O26	O	0.549527	0.971363	0.272803	0.000000
O27	O	0.028637	0.578163	0.272803	0.000000
O28	O	0.783807	0.088503	0.893863	0.000000
O29	O	0.304697	0.216193	0.893863	0.000000
O30	O	0.911497	0.695303	0.893863	0.000000
O31	O	0.088503	0.783807	0.606137	0.000000
O32	O	0.216193	0.304697	0.606137	0.000000
O33	O	0.695303	0.911497	0.606137	0.000000
O34	O	0.450473	0.421837	0.227197	0.000000
O35	O	0.971363	0.549527	0.227197	0.000000
O36	O	0.578163	0.028637	0.227197	0.000000
O37	O	0.552600	0.857110	0.085270	0.000000
O38	O	0.142890	0.695490	0.085270	0.000000
O39	O	0.304510	0.447400	0.085270	0.000000
O40	O	0.857110	0.552600	0.414730	0.000000
O41	O	0.695490	0.142890	0.414730	0.000000
O42	O	0.447400	0.304510	0.414730	0.000000
O43	O	0.219267	0.190443	0.418603	0.000000
O44	O	0.809557	0.028823	0.418603	0.000000
O45	O	0.971177	0.780733	0.418603	0.000000
O46	O	0.523777	0.885933	0.748063	0.000000
O47	O	0.362157	0.476223	0.748063	0.000000
O48	O	0.114067	0.637843	0.748063	0.000000
O49	O	0.885933	0.523777	0.751937	0.000000
O50	O	0.476223	0.362157	0.751937	0.000000
O51	O	0.637843	0.114067	0.751937	0.000000
O52	O	0.190443	0.219267	0.081397	0.000000
O53	O	0.028823	0.809557	0.081397	0.000000
O54	O	0.780733	0.971177	0.081397	0.000000
O55	O	0.447400	0.142890	0.914730	0.000000
O56	O	0.857110	0.304510	0.914730	0.000000
O57	O	0.695490	0.552600	0.914730	0.000000
O58	O	0.142890	0.447400	0.585270	0.000000
O59	O	0.304510	0.857110	0.585270	0.000000
O60	O	0.552600	0.695490	0.585270	0.000000
O61	O	0.114067	0.476223	0.248063	0.000000
O62	O	0.523777	0.637843	0.248063	0.000000
O63	O	0.362157	0.885933	0.248063	0.000000
O64	O	0.809557	0.780733	0.918603	0.000000
O65	O	0.971177	0.190443	0.918603	0.000000
O66	O	0.219267	0.028823	0.918603	0.000000
O67	O	0.780733	0.809557	0.581397	0.000000
O68	O	0.190443	0.971177	0.581397	0.000000
O69	O	0.028823	0.219267	0.581397	0.000000
O70	O	0.476223	0.114067	0.251937	0.000000
O71	O	0.637843	0.523777	0.251937	0.000000
O72	O	0.885933	0.362157	0.251937	0.000000
O73	O	0.287490	0.846960	0.084700	0.000000
O74	O	0.153040	0.440530	0.084700	0.000000
O75	O	0.559470	0.712510	0.084700	0.000000
O76	O	0.846960	0.287490	0.415300	0.000000
O77	O	0.440530	0.153040	0.415300	0.000000
O78	O	0.712510	0.559470	0.415300	0.000000
O79	O	0.954157	0.180293	0.418033	0.000000
O80	O	0.819707	0.773863	0.418033	0.000000
O81	O	0.226137	0.045843	0.418033	0.000000
O82	O	0.513627	0.620823	0.748633	0.000000
O83	O	0.107197	0.486373	0.748633	0.000000
O84	O	0.379177	0.892803	0.748633	0.000000
O85	O	0.620823	0.513627	0.751367	0.000000
O86	O	0.486373	0.107197	0.751367	0.000000
O87	O	0.892803	0.379177	0.751367	0.000000
O88	O	0.180293	0.954157	0.081967	0.000000
O89	O	0.773863	0.819707	0.081967	0.000000
O90	O	0.045843	0.226137	0.081967	0.000000
O91	O	0.712510	0.153040	0.915300	0.000000
O92	O	0.846960	0.559470	0.915300	0.000000
O93	O	0.440530	0.287490	0.915300	0.000000
O94	O	0.153040	0.712510	0.584700	0.000000
O95	O	0.559470	0.846960	0.584700	0.000000
O96	O	0.287490	0.440530	0.584700	0.000000
O97	O	0.379177	0.486373	0.248633	0.000000
O98	O	0.513627	0.892803	0.248633	0.000000
O99	O	0.107197	0.620823	0.248633	0.000000
O100	O	0.819707	0.045843	0.918033	0.000000
O101	O	0.226137	0.180293	0.918033	0.000000
O102	O	0.954157	0.773863	0.918033	0.000000
O103	O	0.045843	0.819707	0.581967	0.000000
O104	O	0.180293	0.226137	0.581967	0.000000
O105	O	0.773863	0.954157	0.581967	0.000000
O106	O	0.486373	0.379177	0.251367	0.000000
O107	O	0.892803	0.513627	0.251367	0.000000
O108	O	0.620823	0.107197	0.251367	0.000000
O109	O	0.636510	0.903330	0.061940	0.000000
O110	O	0.096670	0.733180	0.061940	0.000000
O111	O	0.266820	0.363490	0.061940	0.000000
O112	O	0.903330	0.636510	0.438060	0.000000
O113	O	0.733180	0.096670	0.438060	0.000000
O114	O	0.363490	0.266820	0.438060	0.000000
O115	O	0.303177	0.236663	0.395273	0.000000
O116	O	0.763337	0.066513	0.395273	0.000000
O117	O	0.933487	0.696823	0.395273	0.000000
O118	O	0.569997	0.969843	0.771393	0.000000
O119	O	0.399847	0.430003	0.771393	0.000000
O120	O	0.030157	0.600153	0.771393	0.000000
O121	O	0.969843	0.569997	0.728607	0.000000
O122	O	0.430003	0.399847	0.728607	0.000000
O123	O	0.600153	0.030157	0.728607	0.000000
O124	O	0.236663	0.303177	0.104727	0.000000
O125	O	0.066513	0.763337	0.104727	0.000000
O126	O	0.696823	0.933487	0.104727	0.000000
O127	O	0.363490	0.096670	0.938060	0.000000
O128	O	0.903330	0.266820	0.938060	0.000000
O129	O	0.733180	0.636510	0.938060	0.000000
O130	O	0.096670	0.363490	0.561940	0.000000
O131	O	0.266820	0.903330	0.561940	0.000000
O132	O	0.636510	0.733180	0.561940	0.000000
O133	O	0.030157	0.430003	0.271393	0.000000
O134	O	0.569997	0.600153	0.271393	0.000000
O135	O	0.399847	0.969843	0.271393	0.000000
O136	O	0.763337	0.696823	0.895273	0.000000
O137	O	0.933487	0.236663	0.895273	0.000000
O138	O	0.303177	0.066513	0.895273	0.000000
O139	O	0.696823	0.763337	0.604727	0.000000
O140	O	0.236663	0.933487	0.604727	0.000000
O141	O	0.066513	0.303177	0.604727	0.000000
O142	O	0.430003	0.030157	0.228607	0.000000
O143	O	0.600153	0.569997	0.228607	0.000000
O144	O	0.969843	0.399847	0.228607	0.000000
C1	C	0.572040	0.888850	0.070440	0.000000
C2	C	0.111150	0.683190	0.070440	0.000000
C3	C	0.316810	0.427960	0.070440	0.000000
C4	C	0.888850	0.572040	0.429560	0.000000
C5	C	0.683190	0.111150	0.429560	0.000000
C6	C	0.427960	0.316810	0.429560	0.000000
C7	C	0.238707	0.222183	0.403773	0.000000
C8	C	0.777817	0.016523	0.403773	0.000000
C9	C	0.983477	0.761293	0.403773	0.000000
C10	C	0.555517	0.905373	0.762893	0.000000
C11	C	0.349857	0.444483	0.762893	0.000000
C12	C	0.094627	0.650143	0.762893	0.000000
C13	C	0.905373	0.555517	0.737107	0.000000
C14	C	0.444483	0.349857	0.737107	0.000000
C15	C	0.650143	0.094627	0.737107	0.000000
C16	C	0.222183	0.238707	0.096227	0.000000
C17	C	0.016523	0.777817	0.096227	0.000000
C18	C	0.761293	0.983477	0.096227	0.000000
C19	C	0.427960	0.111150	0.929560	0.000000
C20	C	0.888850	0.316810	0.929560	0.000000
C21	C	0.683190	0.572040	0.929560	0.000000
C22	C	0.111150	0.427960	0.570440	0.000000
C23	C	0.316810	0.888850	0.570440	0.000000
C24	C	0.572040	0.683190	0.570440	0.000000
C25	C	0.094627	0.444483	0.262893	0.000000
C26	C	0.555517	0.650143	0.262893	0.000000
C27	C	0.349857	0.905373	0.262893	0.000000
C28	C	0.777817	0.761293	0.903773	0.000000
C29	C	0.983477	0.222183	0.903773	0.000000
C30	C	0.238707	0.016523	0.903773	0.000000
C31	C	0.761293	0.777817	0.596227	0.000000
C32	C	0.222183	0.983477	0.596227	0.000000
C33	C	0.016523	0.238707	0.596227	0.000000
C34	C	0.444483	0.094627	0.237107	0.000000
C35	C	0.650143	0.555517	0.237107	0.000000
C36	C	0.905373	0.349857	0.237107	0.000000
C37	C	0.467590	0.948920	0.035950	0.000000
C38	C	0.051080	0.518670	0.035950	0.000000
C39	C	0.481330	0.532410	0.035950	0.000000
C40	C	0.948920	0.467590	0.464050	0.000000
C41	C	0.518670	0.051080	0.464050	0.000000
C42	C	0.532410	0.481330	0.464050	0.000000
C43	C	0.134257	0.282253	0.369283	0.000000
C44	C	0.717747	0.852003	0.369283	0.000000
C45	C	0.147997	0.865743	0.369283	0.000000
C46	C	0.615587	0.800923	0.797383	0.000000
C47	C	0.185337	0.384413	0.797383	0.000000
C48	C	0.199077	0.814663	0.797383	0.000000
C49	C	0.800923	0.615587	0.702617	0.000000
C50	C	0.384413	0.185337	0.702617	0.000000
C51	C	0.814663	0.199077	0.702617	0.000000
C52	C	0.282253	0.134257	0.130717	0.000000
C53	C	0.852003	0.717747	0.130717	0.000000
C54	C	0.865743	0.147997	0.130717	0.000000
C55	C	0.532410	0.051080	0.964050	0.000000
C56	C	0.948920	0.481330	0.964050	0.000000
C57	C	0.518670	0.467590	0.964050	0.000000
C58	C	0.051080	0.532410	0.535950	0.000000
C59	C	0.481330	0.948920	0.535950	0.000000
C60	C	0.467590	0.518670	0.535950	0.000000
C61	C	0.199077	0.384413	0.297383	0.000000
C62	C	0.615587	0.814663	0.297383	0.000000
C63	C	0.185337	0.800923	0.297383	0.000000
C64	C	0.717747	0.865743	0.869283	0.000000
C65	C	0.147997	0.282253	0.869283	0.000000
C66	C	0.134257	0.852003	0.869283	0.000000
C67	C	0.865743	0.717747	0.630717	0.000000
C68	C	0.282253	0.147997	0.630717	0.000000
C69	C	0.852003	0.134257	0.630717	0.000000
C70	C	0.384413	0.199077	0.202617	0.000000
C71	C	0.814663	0.615587	0.202617	0.000000
C72	C	0.800923	0.185337	0.202617	0.000000
C73	C	0.296860	0.875460	0.069600	0.000000
C74	C	0.124540	0.421400	0.069600	0.000000
C75	C	0.578600	0.703140	0.069600	0.000000
C76	C	0.875460	0.296860	0.430400	0.000000
C77	C	0.421400	0.124540	0.430400	0.000000
C78	C	0.703140	0.578600	0.430400	0.000000
C79	C	0.963527	0.208793	0.402933	0.000000
C80	C	0.791207	0.754733	0.402933	0.000000
C81	C	0.245267	0.036473	0.402933	0.000000
C82	C	0.542127	0.630193	0.763733	0.000000
C83	C	0.088067	0.457873	0.763733	0.000000
C84	C	0.369807	0.911933	0.763733	0.000000
C85	C	0.630193	0.542127	0.736267	0.000000
C86	C	0.457873	0.088067	0.736267	0.000000
C87	C	0.911933	0.369807	0.736267	0.000000
C88	C	0.208793	0.963527	0.097067	0.000000
C89	C	0.754733	0.791207	0.097067	0.000000
C90	C	0.036473	0.245267	0.097067	0.000000
C91	C	0.703140	0.124540	0.930400	0.000000
C92	C	0.875460	0.578600	0.930400	0.000000
C93	C	0.421400	0.296860	0.930400	0.000000
C94	C	0.124540	0.703140	0.569600	0.000000
C95	C	0.578600	0.875460	0.569600	0.000000
C96	C	0.296860	0.421400	0.569600	0.000000
C97	C	0.369807	0.457873	0.263733	0.000000
C98	C	0.542127	0.911933	0.263733	0.000000
C99	C	0.088067	0.630193	0.263733	0.000000
C100	C	0.791207	0.036473	0.902933	0.000000
C101	C	0.245267	0.208793	0.902933	0.000000
C102	C	0.963527	0.754733	0.902933	0.000000
C103	C	0.036473	0.791207	0.597067	0.000000
C104	C	0.208793	0.245267	0.597067	0.000000
C105	C	0.754733	0.963527	0.597067	0.000000
C106	C	0.457873	0.369807	0.236267	0.000000
C107	C	0.911933	0.542127	0.236267	0.000000
C108	C	0.630193	0.088067	0.236267	0.000000
C109	C	0.526540	0.937980	0.044870	0.000000
C110	C	0.062020	0.588560	0.044870	0.000000
C111	C	0.411440	0.473460	0.044870	0.000000
C112	C	0.937980	0.526540	0.455130	0.000000
C113	C	0.588560	0.062020	0.455130	0.000000
C114	C	0.473460	0.411440	0.455130	0.000000
C115	C	0.193207	0.271313	0.378203	0.000000
C116	C	0.728687	0.921893	0.378203	0.000000
C117	C	0.078107	0.806793	0.378203	0.000000
C118	C	0.604647	0.859873	0.788463	0.000000
C119	C	0.255227	0.395353	0.788463	0.000000
C120	C	0.140127	0.744773	0.788463	0.000000
C121	C	0.859873	0.604647	0.711537	0.000000
C122	C	0.395353	0.255227	0.711537	0.000000
C123	C	0.744773	0.140127	0.711537	0.000000
C124	C	0.271313	0.193207	0.121797	0.000000
C125	C	0.921893	0.728687	0.121797	0.000000
C126	C	0.806793	0.078107	0.121797	0.000000
C127	C	0.473460	0.062020	0.955130	0.000000
C128	C	0.937980	0.411440	0.955130	0.000000
C129	C	0.588560	0.526540	0.955130	0.000000
C130	C	0.062020	0.473460	0.544870	0.000000
C131	C	0.411440	0.937980	0.544870	0.000000
C132	C	0.526540	0.588560	0.544870	0.000000
C133	C	0.140127	0.395353	0.288463	0.000000
C134	C	0.604647	0.744773	0.288463	0.000000
C135	C	0.255227	0.859873	0.288463	0.000000
C136	C	0.728687	0.806793	0.878203	0.000000
C137	C	0.078107	0.271313	0.878203	0.000000
C138	C	0.193207	0.921893	0.878203	0.000000
C139	C	0.806793	0.728687	0.621797	0.000000
C140	C	0.271313	0.078107	0.621797	0.000000
C141	C	0.921893	0.193207	0.621797	0.000000
C142	C	0.395353	0.140127	0.211537	0.000000
C143	C	0.744773	0.604647	0.211537	0.000000
C144	C	0.859873	0.255227	0.211537	0.000000
H1	H	0.577400	0.950400	0.039300	0.000000
H2	H	0.049600	0.627000	0.039300	0.000000
H3	H	0.373000	0.422600	0.039300	0.000000
H4	H	0.950400	0.577400	0.460700	0.000000
H5	H	0.627000	0.049600	0.460700	0.000000
H6	H	0.422600	0.373000	0.460700	0.000000
H7	H	0.244067	0.283733	0.372633	0.000000
H8	H	0.716267	0.960333	0.372633	0.000000
H9	H	0.039667	0.755933	0.372633	0.000000
H10	H	0.617067	0.910733	0.794033	0.000000
H11	H	0.293667	0.382933	0.794033	0.000000
H12	H	0.089267	0.706333	0.794033	0.000000
H13	H	0.910733	0.617067	0.705967	0.000000
H14	H	0.382933	0.293667	0.705967	0.000000
H15	H	0.706333	0.089267	0.705967	0.000000
H16	H	0.283733	0.244067	0.127367	0.000000
H17	H	0.960333	0.716267	0.127367	0.000000
H18	H	0.755933	0.039667	0.127367	0.000000
H19	H	0.422600	0.049600	0.960700	0.000000
H20	H	0.950400	0.373000	0.960700	0.000000
H21	H	0.627000	0.577400	0.960700	0.000000
H22	H	0.049600	0.422600	0.539300	0.000000
H23	H	0.373000	0.950400	0.539300	0.000000
H24	H	0.577400	0.627000	0.539300	0.000000
H25	H	0.089267	0.382933	0.294033	0.000000
H26	H	0.617067	0.706333	0.294033	0.000000
H27	H	0.293667	0.910733	0.294033	0.000000
H28	H	0.716267	0.755933	0.872633	0.000000
H29	H	0.039667	0.283733	0.872633	0.000000
H30	H	0.244067	0.960333	0.872633	0.000000
H31	H	0.755933	0.716267	0.627367	0.000000
H32	H	0.283733	0.039667	0.627367	0.000000
H33	H	0.960333	0.244067	0.627367	0.000000
H34	H	0.382933	0.089267	0.205967	0.000000
H35	H	0.706333	0.617067	0.205967	0.000000
H36	H	0.910733	0.293667	0.205967	0.000000
C145	C	0.436600	0.917710	0.004270	0.000000
C146	C	0.082290	0.518890	0.004270	0.000000
C147	C	0.481110	0.563400	0.004270	0.000000
C148	C	0.917710	0.436600	0.495730	0.000000
C149	C	0.518890	0.082290	0.495730	0.000000
C150	C	0.563400	0.481110	0.495730	0.000000
C151	C	0.103267	0.251043	0.337603	0.000000
C152	C	0.748957	0.852223	0.337603	0.000000
C153	C	0.147777	0.896733	0.337603	0.000000
C154	C	0.584377	0.769933	0.829063	0.000000
C155	C	0.185557	0.415623	0.829063	0.000000
C156	C	0.230067	0.814443	0.829063	0.000000
C157	C	0.769933	0.584377	0.670937	0.000000
C158	C	0.415623	0.185557	0.670937	0.000000
C159	C	0.814443	0.230067	0.670937	0.000000
C160	C	0.251043	0.103267	0.162397	0.000000
C161	C	0.852223	0.748957	0.162397	0.000000
C162	C	0.896733	0.147777	0.162397	0.000000
C163	C	0.563400	0.082290	0.995730	0.000000
C164	C	0.917710	0.481110	0.995730	0.000000
C165	C	0.518890	0.436600	0.995730	0.000000
C166	C	0.082290	0.563400	0.504270	0.000000
C167	C	0.481110	0.917710	0.504270	0.000000
C168	C	0.436600	0.518890	0.504270	0.000000
C169	C	0.230067	0.415623	0.329063	0.000000
C170	C	0.584377	0.814443	0.329063	0.000000
C171	C	0.185557	0.769933	0.329063	0.000000
C172	C	0.748957	0.896733	0.837603	0.000000
C173	C	0.147777	0.251043	0.837603	0.000000
C174	C	0.103267	0.852223	0.837603	0.000000
C175	C	0.896733	0.748957	0.662397	0.000000
C176	C	0.251043	0.147777	0.662397	0.000000
C177	C	0.852223	0.103267	0.662397	0.000000
C178	C	0.415623	0.230067	0.170937	0.000000
C179	C	0.814443	0.584377	0.170937	0.000000
C180	C	0.769933	0.185557	0.170937	0.000000
C181	C	0.455070	0.943460	0.986690	0.000000
C182	C	0.056540	0.511610	0.986690	0.000000
C183	C	0.488390	0.544930	0.986690	0.000000
C184	C	0.943460	0.455070	0.513310	0.000000
C185	C	0.511610	0.056540	0.513310	0.000000
C186	C	0.544930	0.488390	0.513310	0.000000
C187	C	0.121737	0.276793	0.320023	0.000000
C188	C	0.723207	0.844943	0.320023	0.000000
C189	C	0.155057	0.878263	0.320023	0.000000
C190	C	0.610127	0.788403	0.846643	0.000000
C191	C	0.178277	0.389873	0.846643	0.000000
C192	C	0.211597	0.821723	0.846643	0.000000
C193	C	0.788403	0.610127	0.653357	0.000000
C194	C	0.389873	0.178277	0.653357	0.000000
C195	C	0.821723	0.211597	0.653357	0.000000
C196	C	0.276793	0.121737	0.179977	0.000000
C197	C	0.844943	0.723207	0.179977	0.000000
C198	C	0.878263	0.155057	0.179977	0.000000
C199	C	0.544930	0.056540	0.013310	0.000000
C200	C	0.943460	0.488390	0.013310	0.000000
C201	C	0.511610	0.455070	0.013310	0.000000
C202	C	0.056540	0.544930	0.486690	0.000000
C203	C	0.488390	0.943460	0.486690	0.000000
C204	C	0.455070	0.511610	0.486690	0.000000
C205	C	0.211597	0.389873	0.346643	0.000000
C206	C	0.610127	0.821723	0.346643	0.000000
C207	C	0.178277	0.788403	0.346643	0.000000
C208	C	0.723207	0.878263	0.820023	0.000000
C209	C	0.155057	0.276793	0.820023	0.000000
C210	C	0.121737	0.844943	0.820023	0.000000
C211	C	0.878263	0.723207	0.679977	0.000000
C212	C	0.276793	0.155057	0.679977	0.000000
C213	C	0.844943	0.121737	0.679977	0.000000
C214	C	0.389873	0.211597	0.153357	0.000000
C215	C	0.821723	0.610127	0.153357	0.000000
C216	C	0.788403	0.178277	0.153357	0.000000
C217	C	0.394220	0.930640	0.044210	0.000000
C218	C	0.069360	0.463580	0.044210	0.000000
C219	C	0.536420	0.605780	0.044210	0.000000
C220	C	0.930640	0.394220	0.455790	0.000000
C221	C	0.463580	0.069360	0.455790	0.000000
C222	C	0.605780	0.536420	0.455790	0.000000
C223	C	0.060887	0.263973	0.377543	0.000000
C224	C	0.736027	0.796913	0.377543	0.000000
C225	C	0.203087	0.939113	0.377543	0.000000
C226	C	0.597307	0.727553	0.789123	0.000000
C227	C	0.130247	0.402693	0.789123	0.000000
C228	C	0.272447	0.869753	0.789123	0.000000
C229	C	0.727553	0.597307	0.710877	0.000000
C230	C	0.402693	0.130247	0.710877	0.000000
C231	C	0.869753	0.272447	0.710877	0.000000
C232	C	0.263973	0.060887	0.122457	0.000000
C233	C	0.796913	0.736027	0.122457	0.000000
C234	C	0.939113	0.203087	0.122457	0.000000
C235	C	0.605780	0.069360	0.955790	0.000000
C236	C	0.930640	0.536420	0.955790	0.000000
C237	C	0.463580	0.394220	0.955790	0.000000
C238	C	0.069360	0.605780	0.544210	0.000000
C239	C	0.536420	0.930640	0.544210	0.000000
C240	C	0.394220	0.463580	0.544210	0.000000
C241	C	0.272447	0.402693	0.289123	0.000000
C242	C	0.597307	0.869753	0.289123	0.000000
C243	C	0.130247	0.727553	0.289123	0.000000
C244	C	0.736027	0.939113	0.877543	0.000000
C245	C	0.203087	0.263973	0.877543	0.000000
C246	C	0.060887	0.796913	0.877543	0.000000
C247	C	0.939113	0.736027	0.622457	0.000000
C248	C	0.263973	0.203087	0.622457	0.000000
C249	C	0.796913	0.060887	0.622457	0.000000
C250	C	0.402693	0.272447	0.210877	0.000000
C251	C	0.869753	0.597307	0.210877	0.000000
C252	C	0.727553	0.130247	0.210877	0.000000
H37	H	0.353300	0.937800	0.038200	0.000000
H38	H	0.062200	0.415500	0.038200	0.000000
H39	H	0.584500	0.646700	0.038200	0.000000
H40	H	0.937800	0.353300	0.461800	0.000000
H41	H	0.415500	0.062200	0.461800	0.000000
H42	H	0.646700	0.584500	0.461800	0.000000
H43	H	0.019967	0.271133	0.371533	0.000000
H44	H	0.728867	0.748833	0.371533	0.000000
H45	H	0.251167	0.980033	0.371533	0.000000
H46	H	0.604467	0.686633	0.795133	0.000000
H47	H	0.082167	0.395533	0.795133	0.000000
H48	H	0.313367	0.917833	0.795133	0.000000
H49	H	0.686633	0.604467	0.704867	0.000000
H50	H	0.395533	0.082167	0.704867	0.000000
H51	H	0.917833	0.313367	0.704867	0.000000
H52	H	0.271133	0.019967	0.128467	0.000000
H53	H	0.748833	0.728867	0.128467	0.000000
H54	H	0.980033	0.251167	0.128467	0.000000
H55	H	0.646700	0.062200	0.961800	0.000000
H56	H	0.937800	0.584500	0.961800	0.000000
H57	H	0.415500	0.353300	0.961800	0.000000
H58	H	0.062200	0.646700	0.538200	0.000000
H59	H	0.584500	0.937800	0.538200	0.000000
H60	H	0.353300	0.415500	0.538200	0.000000
H61	H	0.313367	0.395533	0.295133	0.000000
H62	H	0.604467	0.917833	0.295133	0.000000
H63	H	0.082167	0.686633	0.295133	0.000000
H64	H	0.728867	0.980033	0.871533	0.000000
H65	H	0.251167	0.271133	0.871533	0.000000
H66	H	0.019967	0.748833	0.871533	0.000000
H67	H	0.980033	0.728867	0.628467	0.000000
H68	H	0.271133	0.251167	0.628467	0.000000
H69	H	0.748833	0.019967	0.628467	0.000000
H70	H	0.395533	0.313367	0.204867	0.000000
H71	H	0.917833	0.604467	0.204867	0.000000
H72	H	0.686633	0.082167	0.204867	0.000000
C253	C	0.379310	0.901720	0.061280	0.000000
C254	C	0.098280	0.477590	0.061280	0.000000
C255	C	0.522410	0.620690	0.061280	0.000000
C256	C	0.901720	0.379310	0.438720	0.000000
C257	C	0.477590	0.098280	0.438720	0.000000
C258	C	0.620690	0.522410	0.438720	0.000000
C259	C	0.045977	0.235053	0.394613	0.000000
C260	C	0.764947	0.810923	0.394613	0.000000
C261	C	0.189077	0.954023	0.394613	0.000000
C262	C	0.568387	0.712643	0.772053	0.000000
C263	C	0.144257	0.431613	0.772053	0.000000
C264	C	0.287357	0.855743	0.772053	0.000000
C265	C	0.712643	0.568387	0.727947	0.000000
C266	C	0.431613	0.144257	0.727947	0.000000
C267	C	0.855743	0.287357	0.727947	0.000000
C268	C	0.235053	0.045977	0.105387	0.000000
C269	C	0.810923	0.764947	0.105387	0.000000
C270	C	0.954023	0.189077	0.105387	0.000000
C271	C	0.620690	0.098280	0.938720	0.000000
C272	C	0.901720	0.522410	0.938720	0.000000
C273	C	0.477590	0.379310	0.938720	0.000000
C274	C	0.098280	0.620690	0.561280	0.000000
C275	C	0.522410	0.901720	0.561280	0.000000
C276	C	0.379310	0.477590	0.561280	0.000000
C277	C	0.287357	0.431613	0.272053	0.000000
C278	C	0.568387	0.855743	0.272053	0.000000
C279	C	0.144257	0.712643	0.272053	0.000000
C280	C	0.764947	0.954023	0.894613	0.000000
C281	C	0.189077	0.235053	0.894613	0.000000
C282	C	0.045977	0.810923	0.894613	0.000000
C283	C	0.954023	0.764947	0.605387	0.000000
C284	C	0.235053	0.189077	0.605387	0.000000
C285	C	0.810923	0.045977	0.605387	0.000000
C286	C	0.431613	0.287357	0.227947	0.000000
C287	C	0.855743	0.568387	0.227947	0.000000
C288	C	0.712643	0.144257	0.227947	0.000000
C289	C	0.482970	0.976190	0.017430	0.000000
C290	C	0.023810	0.506780	0.017430	0.000000
C291	C	0.493220	0.517030	0.017430	0.000000
C292	C	0.976190	0.482970	0.482570	0.000000
C293	C	0.506780	0.023810	0.482570	0.000000
C294	C	0.517030	0.493220	0.482570	0.000000
C295	C	0.149637	0.309523	0.350763	0.000000
C296	C	0.690477	0.840113	0.350763	0.000000
C297	C	0.159887	0.850363	0.350763	0.000000
C298	C	0.642857	0.816303	0.815903	0.000000
C299	C	0.173447	0.357143	0.815903	0.000000
C300	C	0.183697	0.826553	0.815903	0.000000
C301	C	0.816303	0.642857	0.684097	0.000000
C302	C	0.357143	0.173447	0.684097	0.000000
C303	C	0.826553	0.183697	0.684097	0.000000
C304	C	0.309523	0.149637	0.149237	0.000000
C305	C	0.840113	0.690477	0.149237	0.000000
C306	C	0.850363	0.159887	0.149237	0.000000
C307	C	0.517030	0.023810	0.982570	0.000000
C308	C	0.976190	0.493220	0.982570	0.000000
C309	C	0.506780	0.482970	0.982570	0.000000
C310	C	0.023810	0.517030	0.517430	0.000000
C311	C	0.493220	0.976190	0.517430	0.000000
C312	C	0.482970	0.506780	0.517430	0.000000
C313	C	0.183697	0.357143	0.315903	0.000000
C314	C	0.642857	0.826553	0.315903	0.000000
C315	C	0.173447	0.816303	0.315903	0.000000
C316	C	0.690477	0.850363	0.850763	0.000000
C317	C	0.159887	0.309523	0.850763	0.000000
C318	C	0.149637	0.840113	0.850763	0.000000
C319	C	0.850363	0.690477	0.649237	0.000000
C320	C	0.309523	0.159887	0.649237	0.000000
C321	C	0.840113	0.149637	0.649237	0.000000
C322	C	0.357143	0.183697	0.184097	0.000000
C323	C	0.826553	0.642857	0.184097	0.000000
C324	C	0.816303	0.173447	0.184097	0.000000
O145	O	0.094160	0.884300	0.046590	0.000000
O146	O	0.115700	0.209860	0.046590	0.000000
O147	O	0.790140	0.905840	0.046590	0.000000
O148	O	0.884300	0.094160	0.453410	0.000000
O149	O	0.209860	0.115700	0.453410	0.000000
O150	O	0.905840	0.790140	0.453410	0.000000
O151	O	0.760827	0.217633	0.379923	0.000000
O152	O	0.782367	0.543193	0.379923	0.000000
O153	O	0.456807	0.239173	0.379923	0.000000
O154	O	0.550967	0.427493	0.786743	0.000000
O155	O	0.876527	0.449033	0.786743	0.000000
O156	O	0.572507	0.123473	0.786743	0.000000
O157	O	0.427493	0.550967	0.713257	0.000000
O158	O	0.449033	0.876527	0.713257	0.000000
O159	O	0.123473	0.572507	0.713257	0.000000
O160	O	0.217633	0.760827	0.120077	0.000000
O161	O	0.543193	0.782367	0.120077	0.000000
O162	O	0.239173	0.456807	0.120077	0.000000
O163	O	0.905840	0.115700	0.953410	0.000000
O164	O	0.884300	0.790140	0.953410	0.000000
O165	O	0.209860	0.094160	0.953410	0.000000
O166	O	0.115700	0.905840	0.546590	0.000000
O167	O	0.790140	0.884300	0.546590	0.000000
O168	O	0.094160	0.209860	0.546590	0.000000
O169	O	0.572507	0.449033	0.286743	0.000000
O170	O	0.550967	0.123473	0.286743	0.000000
O171	O	0.876527	0.427493	0.286743	0.000000
O172	O	0.782367	0.239173	0.879923	0.000000
O173	O	0.456807	0.217633	0.879923	0.000000
O174	O	0.760827	0.543193	0.879923	0.000000
O175	O	0.239173	0.782367	0.620077	0.000000
O176	O	0.217633	0.456807	0.620077	0.000000
O177	O	0.543193	0.760827	0.620077	0.000000
O178	O	0.449033	0.572507	0.213257	0.000000
O179	O	0.123473	0.550967	0.213257	0.000000
O180	O	0.427493	0.876527	0.213257	0.000000
C325	C	0.439380	0.891320	0.070000	0.000000
C326	C	0.108680	0.548060	0.070000	0.000000
C327	C	0.451940	0.560620	0.070000	0.000000
C328	C	0.891320	0.439380	0.430000	0.000000
C329	C	0.548060	0.108680	0.430000	0.000000
C330	C	0.560620	0.451940	0.430000	0.000000
C331	C	0.106047	0.224653	0.403333	0.000000
C332	C	0.775347	0.881393	0.403333	0.000000
C333	C	0.118607	0.893953	0.403333	0.000000
C334	C	0.557987	0.772713	0.763333	0.000000
C335	C	0.214727	0.442013	0.763333	0.000000
C336	C	0.227287	0.785273	0.763333	0.000000
C337	C	0.772713	0.557987	0.736667	0.000000
C338	C	0.442013	0.214727	0.736667	0.000000
C339	C	0.785273	0.227287	0.736667	0.000000
C340	C	0.224653	0.106047	0.096667	0.000000
C341	C	0.881393	0.775347	0.096667	0.000000
C342	C	0.893953	0.118607	0.096667	0.000000
C343	C	0.560620	0.108680	0.930000	0.000000
C344	C	0.891320	0.451940	0.930000	0.000000
C345	C	0.548060	0.439380	0.930000	0.000000
C346	C	0.108680	0.560620	0.570000	0.000000
C347	C	0.451940	0.891320	0.570000	0.000000
C348	C	0.439380	0.548060	0.570000	0.000000
C349	C	0.227287	0.442013	0.263333	0.000000
C350	C	0.557987	0.785273	0.263333	0.000000
C351	C	0.214727	0.772713	0.263333	0.000000
C352	C	0.775347	0.893953	0.903333	0.000000
C353	C	0.118607	0.224653	0.903333	0.000000
C354	C	0.106047	0.881393	0.903333	0.000000
C355	C	0.893953	0.775347	0.596667	0.000000
C356	C	0.224653	0.118607	0.596667	0.000000
C357	C	0.881393	0.106047	0.596667	0.000000
C358	C	0.442013	0.227287	0.236667	0.000000
C359	C	0.785273	0.557987	0.236667	0.000000
C360	C	0.772713	0.214727	0.236667	0.000000
H73	H	0.429900	0.871800	0.081700	0.000000
H74	H	0.128200	0.558100	0.081700	0.000000
H75	H	0.441900	0.570100	0.081700	0.000000
H76	H	0.871800	0.429900	0.418300	0.000000
H77	H	0.558100	0.128200	0.418300	0.000000
H78	H	0.570100	0.441900	0.418300	0.000000
H79	H	0.096567	0.205133	0.415033	0.000000
H80	H	0.794867	0.891433	0.415033	0.000000
H81	H	0.108567	0.903433	0.415033	0.000000
H82	H	0.538467	0.763233	0.751633	0.000000
H83	H	0.224767	0.461533	0.751633	0.000000
H84	H	0.236767	0.775233	0.751633	0.000000
H85	H	0.763233	0.538467	0.748367	0.000000
H86	H	0.461533	0.224767	0.748367	0.000000
H87	H	0.775233	0.236767	0.748367	0.000000
H88	H	0.205133	0.096567	0.084967	0.000000
H89	H	0.891433	0.794867	0.084967	0.000000
H90	H	0.903433	0.108567	0.084967	0.000000
H91	H	0.570100	0.128200	0.918300	0.000000
H92	H	0.871800	0.441900	0.918300	0.000000
H93	H	0.558100	0.429900	0.918300	0.000000
H94	H	0.128200	0.570100	0.581700	0.000000
H95	H	0.441900	0.871800	0.581700	0.000000
H96	H	0.429900	0.558100	0.581700	0.000000
H97	H	0.236767	0.461533	0.251633	0.000000
H98	H	0.538467	0.775233	0.251633	0.000000
H99	H	0.224767	0.763233	0.251633	0.000000
H100	H	0.794867	0.903433	0.915033	0.000000
H101	H	0.108567	0.205133	0.915033	0.000000
H102	H	0.096567	0.891433	0.915033	0.000000
H103	H	0.903433	0.794867	0.584967	0.000000
H104	H	0.205133	0.108567	0.584967	0.000000
H105	H	0.891433	0.096567	0.584967	0.000000
H106	H	0.461533	0.236767	0.248367	0.000000
H107	H	0.775233	0.538467	0.248367	0.000000
H108	H	0.763233	0.224767	0.248367	0.000000
C361	C	0.408200	0.881900	0.973650	0.000000
C362	C	0.118100	0.526300	0.973650	0.000000
C363	C	0.473700	0.591800	0.973650	0.000000
C364	C	0.881900	0.408200	0.526350	0.000000
C365	C	0.526300	0.118100	0.526350	0.000000
C366	C	0.591800	0.473700	0.526350	0.000000
C367	C	0.074867	0.215233	0.306983	0.000000
C368	C	0.784767	0.859633	0.306983	0.000000
C369	C	0.140367	0.925133	0.306983	0.000000
C370	C	0.548567	0.741533	0.859683	0.000000
C371	C	0.192967	0.451433	0.859683	0.000000
C372	C	0.258467	0.807033	0.859683	0.000000
C373	C	0.741533	0.548567	0.640317	0.000000
C374	C	0.451433	0.192967	0.640317	0.000000
C375	C	0.807033	0.258467	0.640317	0.000000
C376	C	0.215233	0.074867	0.193017	0.000000
C377	C	0.859633	0.784767	0.193017	0.000000
C378	C	0.925133	0.140367	0.193017	0.000000
C379	C	0.591800	0.118100	0.026350	0.000000
C380	C	0.881900	0.473700	0.026350	0.000000
C381	C	0.526300	0.408200	0.026350	0.000000
C382	C	0.118100	0.591800	0.473650	0.000000
C383	C	0.473700	0.881900	0.473650	0.000000
C384	C	0.408200	0.526300	0.473650	0.000000
C385	C	0.258467	0.451433	0.359683	0.000000
C386	C	0.548567	0.807033	0.359683	0.000000
C387	C	0.192967	0.741533	0.359683	0.000000
C388	C	0.784767	0.925133	0.806983	0.000000
C389	C	0.140367	0.215233	0.806983	0.000000
C390	C	0.074867	0.859633	0.806983	0.000000
C391	C	0.925133	0.784767	0.693017	0.000000
C392	C	0.215233	0.140367	0.693017	0.000000
C393	C	0.859633	0.074867	0.693017	0.000000
C394	C	0.451433	0.258467	0.140317	0.000000
C395	C	0.807033	0.548567	0.140317	0.000000
C396	C	0.741533	0.192967	0.140317	0.000000
H109	H	0.419600	0.896800	0.961700	0.000000
H110	H	0.103200	0.522800	0.961700	0.000000
H111	H	0.477200	0.580400	0.961700	0.000000
H112	H	0.896800	0.419600	0.538300	0.000000
H113	H	0.522800	0.103200	0.538300	0.000000
H114	H	0.580400	0.477200	0.538300	0.000000
H115	H	0.086267	0.230133	0.295033	0.000000
H116	H	0.769867	0.856133	0.295033	0.000000
H117	H	0.143867	0.913733	0.295033	0.000000
H118	H	0.563467	0.752933	0.871633	0.000000
H119	H	0.189467	0.436533	0.871633	0.000000
H120	H	0.247067	0.810533	0.871633	0.000000
H121	H	0.752933	0.563467	0.628367	0.000000
H122	H	0.436533	0.189467	0.628367	0.000000
H123	H	0.810533	0.247067	0.628367	0.000000
H124	H	0.230133	0.086267	0.204967	0.000000
H125	H	0.856133	0.769867	0.204967	0.000000
H126	H	0.913733	0.143867	0.204967	0.000000
H127	H	0.580400	0.103200	0.038300	0.000000
H128	H	0.896800	0.477200	0.038300	0.000000
H129	H	0.522800	0.419600	0.038300	0.000000
H130	H	0.103200	0.580400	0.461700	0.000000
H131	H	0.477200	0.896800	0.461700	0.000000
H132	H	0.419600	0.522800	0.461700	0.000000
H133	H	0.247067	0.436533	0.371633	0.000000
H134	H	0.563467	0.810533	0.371633	0.000000
H135	H	0.189467	0.752933	0.371633	0.000000
H136	H	0.769867	0.913733	0.795033	0.000000
H137	H	0.143867	0.230133	0.795033	0.000000
H138	H	0.086267	0.856133	0.795033	0.000000
H139	H	0.913733	0.769867	0.704967	0.000000
H140	H	0.230133	0.143867	0.704967	0.000000
H141	H	0.856133	0.086267	0.704967	0.000000
H142	H	0.436533	0.247067	0.128367	0.000000
H143	H	0.810533	0.563467	0.128367	0.000000
H144	H	0.752933	0.189467	0.128367	0.000000
C397	C	0.512700	0.909340	0.061720	0.000000
C398	C	0.090660	0.603360	0.061720	0.000000
C399	C	0.396640	0.487300	0.061720	0.000000
C400	C	0.909340	0.512700	0.438280	0.000000
C401	C	0.603360	0.090660	0.438280	0.000000
C402	C	0.487300	0.396640	0.438280	0.000000
C403	C	0.179367	0.242673	0.395053	0.000000
C404	C	0.757327	0.936693	0.395053	0.000000
C405	C	0.063307	0.820633	0.395053	0.000000
C406	C	0.576007	0.846033	0.771613	0.000000
C407	C	0.270027	0.423993	0.771613	0.000000
C408	C	0.153967	0.729973	0.771613	0.000000
C409	C	0.846033	0.576007	0.728387	0.000000
C410	C	0.423993	0.270027	0.728387	0.000000
C411	C	0.729973	0.153967	0.728387	0.000000
C412	C	0.242673	0.179367	0.104947	0.000000
C413	C	0.936693	0.757327	0.104947	0.000000
C414	C	0.820633	0.063307	0.104947	0.000000
C415	C	0.487300	0.090660	0.938280	0.000000
C416	C	0.909340	0.396640	0.938280	0.000000
C417	C	0.603360	0.512700	0.938280	0.000000
C418	C	0.090660	0.487300	0.561720	0.000000
C419	C	0.396640	0.909340	0.561720	0.000000
C420	C	0.512700	0.603360	0.561720	0.000000
C421	C	0.153967	0.423993	0.271613	0.000000
C422	C	0.576007	0.729973	0.271613	0.000000
C423	C	0.270027	0.846033	0.271613	0.000000
C424	C	0.757327	0.820633	0.895053	0.000000
C425	C	0.063307	0.242673	0.895053	0.000000
C426	C	0.179367	0.936693	0.895053	0.000000
C427	C	0.820633	0.757327	0.604947	0.000000
C428	C	0.242673	0.063307	0.604947	0.000000
C429	C	0.936693	0.179367	0.604947	0.000000
C430	C	0.423993	0.153967	0.228387	0.000000
C431	C	0.729973	0.576007	0.228387	0.000000
C432	C	0.846033	0.270027	0.228387	0.000000
C433	C	0.373540	0.834880	0.008030	0.000000
C434	C	0.165120	0.538660	0.008030	0.000000
C435	C	0.461340	0.626460	0.008030	0.000000
C436	C	0.834880	0.373540	0.491970	0.000000
C437	C	0.538660	0.165120	0.491970	0.000000
C438	C	0.626460	0.461340	0.491970	0.000000
C439	C	0.040207	0.168213	0.341363	0.000000
C440	C	0.831787	0.871993	0.341363	0.000000
C441	C	0.128007	0.959793	0.341363	0.000000
C442	C	0.501547	0.706873	0.825303	0.000000
C443	C	0.205327	0.498453	0.825303	0.000000
C444	C	0.293127	0.794673	0.825303	0.000000
C445	C	0.706873	0.501547	0.674697	0.000000
C446	C	0.498453	0.205327	0.674697	0.000000
C447	C	0.794673	0.293127	0.674697	0.000000
C448	C	0.168213	0.040207	0.158637	0.000000
C449	C	0.871993	0.831787	0.158637	0.000000
C450	C	0.959793	0.128007	0.158637	0.000000
C451	C	0.626460	0.165120	0.991970	0.000000
C452	C	0.834880	0.461340	0.991970	0.000000
C453	C	0.538660	0.373540	0.991970	0.000000
C454	C	0.165120	0.626460	0.508030	0.000000
C455	C	0.461340	0.834880	0.508030	0.000000
C456	C	0.373540	0.538660	0.508030	0.000000
C457	C	0.293127	0.498453	0.325303	0.000000
C458	C	0.501547	0.794673	0.325303	0.000000
C459	C	0.205327	0.706873	0.325303	0.000000
C460	C	0.831787	0.959793	0.841363	0.000000
C461	C	0.128007	0.168213	0.841363	0.000000
C462	C	0.040207	0.871993	0.841363	0.000000
C463	C	0.959793	0.831787	0.658637	0.000000
C464	C	0.168213	0.128007	0.658637	0.000000
C465	C	0.871993	0.040207	0.658637	0.000000
C466	C	0.498453	0.293127	0.174697	0.000000
C467	C	0.794673	0.501547	0.174697	0.000000
C468	C	0.706873	0.205327	0.174697	0.000000
H145	H	0.361300	0.817500	0.019800	0.000000
H146	H	0.182500	0.543800	0.019800	0.000000
H147	H	0.456200	0.638700	0.019800	0.000000
H148	H	0.817500	0.361300	0.480200	0.000000
H149	H	0.543800	0.182500	0.480200	0.000000
H150	H	0.638700	0.456200	0.480200	0.000000
H151	H	0.027967	0.150833	0.353133	0.000000
H152	H	0.849167	0.877133	0.353133	0.000000
H153	H	0.122867	0.972033	0.353133	0.000000
H154	H	0.484167	0.694633	0.813533	0.000000
H155	H	0.210467	0.515833	0.813533	0.000000
H156	H	0.305367	0.789533	0.813533	0.000000
H157	H	0.694633	0.484167	0.686467	0.000000
H158	H	0.515833	0.210467	0.686467	0.000000
H159	H	0.789533	0.305367	0.686467	0.000000
H160	H	0.150833	0.027967	0.146867	0.000000
H161	H	0.877133	0.849167	0.146867	0.000000
H162	H	0.972033	0.122867	0.146867	0.000000
H163	H	0.638700	0.182500	0.980200	0.000000
H164	H	0.817500	0.456200	0.980200	0.000000
H165	H	0.543800	0.361300	0.980200	0.000000
H166	H	0.182500	0.638700	0.519800	0.000000
H167	H	0.456200	0.817500	0.519800	0.000000
H168	H	0.361300	0.543800	0.519800	0.000000
H169	H	0.305367	0.515833	0.313533	0.000000
H170	H	0.484167	0.789533	0.313533	0.000000
H171	H	0.210467	0.694633	0.313533	0.000000
H172	H	0.849167	0.972033	0.853133	0.000000
H173	H	0.122867	0.150833	0.853133	0.000000
H174	H	0.027967	0.877133	0.853133	0.000000
H175	H	0.972033	0.849167	0.646867	0.000000
H176	H	0.150833	0.122867	0.646867	0.000000
H177	H	0.877133	0.027967	0.646867	0.000000
H178	H	0.515833	0.305367	0.186467	0.000000
H179	H	0.789533	0.484167	0.186467	0.000000
H180	H	0.694633	0.210467	0.186467	0.000000
C469	C	0.348800	0.803900	0.977850	0.000000
C470	C	0.196100	0.544900	0.977850	0.000000
C471	C	0.455100	0.651200	0.977850	0.000000
C472	C	0.803900	0.348800	0.522150	0.000000
C473	C	0.544900	0.196100	0.522150	0.000000
C474	C	0.651200	0.455100	0.522150	0.000000
C475	C	0.015467	0.137233	0.311183	0.000000
C476	C	0.862767	0.878233	0.311183	0.000000
C477	C	0.121767	0.984533	0.311183	0.000000
C478	C	0.470567	0.682133	0.855483	0.000000
C479	C	0.211567	0.529433	0.855483	0.000000
C480	C	0.317867	0.788433	0.855483	0.000000
C481	C	0.682133	0.470567	0.644517	0.000000
C482	C	0.529433	0.211567	0.644517	0.000000
C483	C	0.788433	0.317867	0.644517	0.000000
C484	C	0.137233	0.015467	0.188817	0.000000
C485	C	0.878233	0.862767	0.188817	0.000000
C486	C	0.984533	0.121767	0.188817	0.000000
C487	C	0.651200	0.196100	0.022150	0.000000
C488	C	0.803900	0.455100	0.022150	0.000000
C489	C	0.544900	0.348800	0.022150	0.000000
C490	C	0.196100	0.651200	0.477850	0.000000
C491	C	0.455100	0.803900	0.477850	0.000000
C492	C	0.348800	0.544900	0.477850	0.000000
C493	C	0.317867	0.529433	0.355483	0.000000
C494	C	0.470567	0.788433	0.355483	0.000000
C495	C	0.211567	0.682133	0.355483	0.000000
C496	C	0.862767	0.984533	0.811183	0.000000
C497	C	0.121767	0.137233	0.811183	0.000000
C498	C	0.015467	0.878233	0.811183	0.000000
C499	C	0.984533	0.862767	0.688817	0.000000
C500	C	0.137233	0.121767	0.688817	0.000000
C501	C	0.878233	0.015467	0.688817	0.000000
C502	C	0.529433	0.317867	0.144517	0.000000
C503	C	0.788433	0.470567	0.144517	0.000000
C504	C	0.682133	0.211567	0.144517	0.000000
H181	H	0.318900	0.764600	0.968900	0.000000
H182	H	0.235400	0.554300	0.968900	0.000000
H183	H	0.445700	0.681100	0.968900	0.000000
H184	H	0.764600	0.318900	0.531100	0.000000
H185	H	0.554300	0.235400	0.531100	0.000000
H186	H	0.681100	0.445700	0.531100	0.000000
H187	H	0.985567	0.097933	0.302233	0.000000
H188	H	0.902067	0.887633	0.302233	0.000000
H189	H	0.112367	0.014433	0.302233	0.000000
H190	H	0.431267	0.652233	0.864433	0.000000
H191	H	0.220967	0.568733	0.864433	0.000000
H192	H	0.347767	0.779033	0.864433	0.000000
H193	H	0.652233	0.431267	0.635567	0.000000
H194	H	0.568733	0.220967	0.635567	0.000000
H195	H	0.779033	0.347767	0.635567	0.000000
H196	H	0.097933	0.985567	0.197767	0.000000
H197	H	0.887633	0.902067	0.197767	0.000000
H198	H	0.014433	0.112367	0.197767	0.000000
H199	H	0.681100	0.235400	0.031100	0.000000
H200	H	0.764600	0.445700	0.031100	0.000000
H201	H	0.554300	0.318900	0.031100	0.000000
H202	H	0.235400	0.681100	0.468900	0.000000
H203	H	0.445700	0.764600	0.468900	0.000000
H204	H	0.318900	0.554300	0.468900	0.000000
H205	H	0.347767	0.568733	0.364433	0.000000
H206	H	0.431267	0.779033	0.364433	0.000000
H207	H	0.220967	0.652233	0.364433	0.000000
H208	H	0.902067	0.014433	0.802233	0.000000
H209	H	0.112367	0.097933	0.802233	0.000000
H210	H	0.985567	0.887633	0.802233	0.000000
H211	H	0.014433	0.902067	0.697767	0.000000
H212	H	0.097933	0.112367	0.697767	0.000000
H213	H	0.887633	0.985567	0.697767	0.000000
H214	H	0.568733	0.347767	0.135567	0.000000
H215	H	0.779033	0.431267	0.135567	0.000000
H216	H	0.652233	0.220967	0.135567	0.000000
C505	C	0.330600	0.780200	0.995370	0.000000
C506	C	0.219800	0.550400	0.995370	0.000000
C507	C	0.449600	0.669400	0.995370	0.000000
C508	C	0.780200	0.330600	0.504630	0.000000
C509	C	0.550400	0.219800	0.504630	0.000000
C510	C	0.669400	0.449600	0.504630	0.000000
C511	C	0.997267	0.113533	0.328703	0.000000
C512	C	0.886467	0.883733	0.328703	0.000000
C513	C	0.116267	0.002733	0.328703	0.000000
C514	C	0.446867	0.663933	0.837963	0.000000
C515	C	0.217067	0.553133	0.837963	0.000000
C516	C	0.336067	0.782933	0.837963	0.000000
C517	C	0.663933	0.446867	0.662037	0.000000
C518	C	0.553133	0.217067	0.662037	0.000000
C519	C	0.782933	0.336067	0.662037	0.000000
C520	C	0.113533	0.997267	0.171297	0.000000
C521	C	0.883733	0.886467	0.171297	0.000000
C522	C	0.002733	0.116267	0.171297	0.000000
C523	C	0.669400	0.219800	0.004630	0.000000
C524	C	0.780200	0.449600	0.004630	0.000000
C525	C	0.550400	0.330600	0.004630	0.000000
C526	C	0.219800	0.669400	0.495370	0.000000
C527	C	0.449600	0.780200	0.495370	0.000000
C528	C	0.330600	0.550400	0.495370	0.000000
C529	C	0.336067	0.553133	0.337963	0.000000
C530	C	0.446867	0.782933	0.337963	0.000000
C531	C	0.217067	0.663933	0.337963	0.000000
C532	C	0.886467	0.002733	0.828703	0.000000
C533	C	0.116267	0.113533	0.828703	0.000000
C534	C	0.997267	0.883733	0.828703	0.000000
C535	C	0.002733	0.886467	0.671297	0.000000
C536	C	0.113533	0.116267	0.671297	0.000000
C537	C	0.883733	0.997267	0.671297	0.000000
C538	C	0.553133	0.336067	0.162037	0.000000
C539	C	0.782933	0.446867	0.162037	0.000000
C540	C	0.663933	0.217067	0.162037	0.000000
H217	H	0.287600	0.725200	0.998200	0.000000
H218	H	0.274800	0.562400	0.998200	0.000000
H219	H	0.437600	0.712400	0.998200	0.000000
H220	H	0.725200	0.287600	0.501800	0.000000
H221	H	0.562400	0.274800	0.501800	0.000000
H222	H	0.712400	0.437600	0.501800	0.000000
H223	H	0.954267	0.058533	0.331533	0.000000
H224	H	0.941467	0.895733	0.331533	0.000000
H225	H	0.104267	0.045733	0.331533	0.000000
H226	H	0.391867	0.620933	0.835133	0.000000
H227	H	0.229067	0.608133	0.835133	0.000000
H228	H	0.379067	0.770933	0.835133	0.000000
H229	H	0.620933	0.391867	0.664867	0.000000
H230	H	0.608133	0.229067	0.664867	0.000000
H231	H	0.770933	0.379067	0.664867	0.000000
H232	H	0.058533	0.954267	0.168467	0.000000
H233	H	0.895733	0.941467	0.168467	0.000000
H234	H	0.045733	0.104267	0.168467	0.000000
H235	H	0.712400	0.274800	0.001800	0.000000
H236	H	0.725200	0.437600	0.001800	0.000000
H237	H	0.562400	0.287600	0.001800	0.000000
H238	H	0.274800	0.712400	0.498200	0.000000
H239	H	0.437600	0.725200	0.498200	0.000000
H240	H	0.287600	0.562400	0.498200	0.000000
H241	H	0.379067	0.608133	0.335133	0.000000
H242	H	0.391867	0.770933	0.335133	0.000000
H243	H	0.229067	0.620933	0.335133	0.000000
H244	H	0.941467	0.045733	0.831533	0.000000
H245	H	0.104267	0.058533	0.831533	0.000000
H246	H	0.954267	0.895733	0.831533	0.000000
H247	H	0.045733	0.941467	0.668467	0.000000
H248	H	0.058533	0.104267	0.668467	0.000000
H249	H	0.895733	0.954267	0.668467	0.000000
H250	H	0.608133	0.379067	0.164867	0.000000
H251	H	0.770933	0.391867	0.164867	0.000000
H252	H	0.620933	0.229067	0.164867	0.000000
