data_SBMOF-2_PM
_symmetry_space_group_name_H-M   'P 1'
_cell_length_a 5.116100
_cell_length_b 10.823900
_cell_length_c 15.259800
_cell_angle_alpha 82.990000
_cell_angle_beta 85.885000
_cell_angle_gamma 83.050000
_symmetry_Int_Tables_number 1

loop_
_symmetry_equiv_pos_as_xyz
 'x, y, z'

loop_
_atom_site_label
_atom_site_fract_x
_atom_site_fract_y
_atom_site_fract_z
_atom_site_charge
C 0.979500 0.625400 0.490550 0.000000
C 0.020500 0.374600 0.509450 0.000000
H 0.964600 0.710800 0.484200 0.000000
H 0.035400 0.289200 0.515800 0.000000
C 0.077200 0.562080 0.568940 0.000000
C 0.922800 0.437920 0.431060 0.000000
C 0.096600 0.432660 0.578480 0.000000
C 0.903400 0.567340 0.421520 0.000000
C 0.185000 0.356000 0.661350 0.000000
C 0.815000 0.644000 0.338650 0.000000
C 0.409200 0.271900 0.660400 0.000000
C 0.590800 0.728100 0.339600 0.000000
H 0.499400 0.260500 0.607500 0.000000
H 0.500600 0.739500 0.392500 0.000000
C 0.498000 0.205000 0.738220 0.000000
C 0.502000 0.795000 0.261780 0.000000
H 0.651600 0.151600 0.737300 0.000000
H 0.348400 0.848400 0.262700 0.000000
C 0.361100 0.217000 0.817000 0.000000
C 0.638900 0.783000 0.183000 0.000000
C 0.132400 0.297000 0.816920 0.000000
C 0.867600 0.703000 0.183080 0.000000
H 0.034900 0.304000 0.869000 0.000000
H 0.965100 0.696000 0.131000 0.000000
C 0.048600 0.366100 0.740080 0.000000
C 0.951400 0.633900 0.259920 0.000000
H 0.896900 0.420700 0.741400 0.000000
H 0.103100 0.579300 0.258600 0.000000
C 0.464500 0.150200 0.901980 0.000000
C 0.535500 0.849800 0.098020 0.000000
C 0.157300 0.633530 0.638920 0.000000
C 0.842700 0.366470 0.361080 0.000000
C 0.385800 0.596200 0.684480 0.000000
C 0.614200 0.403800 0.315520 0.000000
H 0.497300 0.529000 0.668900 0.000000
H 0.502700 0.471000 0.331100 0.000000
C 0.448700 0.658200 0.752680 0.000000
C 0.551300 0.341800 0.247320 0.000000
H 0.602100 0.632100 0.782800 0.000000
H 0.397900 0.367900 0.217200 0.000000
C 0.285500 0.758950 0.776790 0.000000
C 0.714500 0.241050 0.223210 0.000000
C 0.061400 0.798900 0.729500 0.000000
C 0.938600 0.201100 0.270500 0.000000
H 0.952400 0.867600 0.743900 0.000000
H 0.047600 0.132400 0.256100 0.000000
C 0.999800 0.737000 0.661130 0.000000
C 0.000200 0.263000 0.338870 0.000000
H 0.850200 0.765100 0.629400 0.000000
H 0.149800 0.234900 0.370600 0.000000
C 0.338700 0.820600 0.854210 0.000000
C 0.661300 0.179400 0.145790 0.000000
O 0.304800 0.141970 0.967940 0.000000
O 0.695200 0.858030 0.032060 0.000000
O 0.698300 0.109580 0.904230 0.000000
O 0.301700 0.890420 0.095770 0.000000
O 0.181800 0.898160 0.883250 0.000000
O 0.818200 0.101840 0.116750 0.000000
O 0.568600 0.784650 0.887190 0.000000
O 0.431400 0.215350 0.112810 0.000000
H 0.586900 0.821800 0.929600 0.000000
H 0.413100 0.178200 0.070400 0.000000
Ca 0.000000 0.000000 0.000000 0.000000
